data_image0
_chemical_formula_structural       B2OC4OC4OC4OC6H8B2OC4OC4OC4OC6H8B2OC4OC4OC4OC6H8B2OC4OC4OC4OC6H8B2OC4OC4OC4OC6H8B2OC4OC4OC4OC6H8B2OC4OC4OC4OC6H8B2OC4OC4OC4OC6H8B2OC4OC4OC4OC6H8B2OC4OC4OC4OC6H8B2OC4OC4OC4OC6H8B2OC4OC4OC4OC6H8B2OC4OC4OC4OC6H8B2OC4OC4OC4OC6H8B2OC4OC4OC4OC6H8B2OC4OC4OC4OC6H8B2OC4OC4OC4OC6H8B2OC4OC4OC4OC6H8B2OC4OC4OC4OC6H8B2OC4OC4OC4OC6H8B2OC4OC4OC4OC6H8B2OC4OC4OC4OC6H8B2OC4OC4OC4OC6H8B2OC4OC4OC4OC6H8B2OC4OC4OC4OC6H8B2OC4OC4OC4OC6H8B2OC4OC4OC4OC6H8
_chemical_formula_sum              "B54 O108 C486 H216"
_cell_length_a       98.5324437735741
_cell_length_b       90.24640330730608
_cell_length_c       30.000000000020815
_cell_angle_alpha    90.00000000000006
_cell_angle_beta     90.0
_cell_angle_gamma    123.08672598434603

_space_group_name_H-M_alt    "P 1"
_space_group_IT_number       1

loop_
  _space_group_symop_operation_xyz
  'x, y, z'

loop_
  _atom_site_type_symbol
  _atom_site_label
  _atom_site_symmetry_multiplicity
  _atom_site_fract_x
  _atom_site_fract_y
  _atom_site_fract_z
  _atom_site_occupancy
  B   B1        1.0  0.48069989222962173  0.7392444669469203  0.549999999999948  1.0000
  B   B2        1.0  0.47633019130347287  0.6695241162956725  0.5499999999999478  1.0000
  O   O1        1.0  0.4613894221473837  0.6531072814144273  0.5499999999999475  1.0000
  C   C1        1.0  0.4932427741435862  0.7041896836501684  0.5499999999999479  1.0000
  C   C2        1.0  0.46529636738136426  0.6395352880367856  0.5499999999999476  1.0000
  C   C3        1.0  0.4551807448384701  0.6206807257971931  0.5499999999999474  1.0000
  C   C4        1.0  0.46242646503760254  0.6102055063399872  0.5499999999999474  1.0000
  O   O2        1.0  0.4946961101653517  0.7566321686987232  0.5499999999999479  1.0000
  C   C5        1.0  0.4653767228727381  0.7051891652558712  0.5499999999999479  1.0000
  C   C6        1.0  0.48841118920635146  0.7685828816231534  0.5499999999999479  1.0000
  C   C7        1.0  0.49583700873215186  0.78776143782239  0.549999999999948  1.0000
  C   C8        1.0  0.4852212422146968  0.7950669678614534  0.549999999999948  1.0000
  O   O3        1.0  0.4665479380646672  0.7393652012154716  0.549999999999948  1.0000
  C   C9        1.0  0.4943861104885408  0.7210754184407158  0.5499999999999478  1.0000
  C   C10       1.0  0.47148296101952664  0.7575341786902503  0.5499999999999479  1.0000
  C   C11       1.0  0.4615905099698694  0.764061452676929  0.5499999999999479  1.0000
  C   C12       1.0  0.4682247479255246  0.7825312688274716  0.549999999999948  1.0000
  O   O4        1.0  0.48940737840453247  0.6672853622075695  0.5499999999999478  1.0000
  C   C13       1.0  0.4642741158867869  0.6889113118916447  0.5499999999999476  1.0000
  C   C14       1.0  0.48217617367038507  0.6480828540403091  0.5499999999999475  1.0000
  C   C15       1.0  0.4894700718523787  0.6382279924465197  0.5499999999999476  1.0000
  C   C16       1.0  0.47956950115366176  0.61915863027465  0.5499999999999474  1.0000
  C   C17       1.0  0.47802577874480756  0.6876924768708416  0.5499999999999476  1.0000
  C   C18       1.0  0.48030339731378996  0.7218136569443461  0.5499999999999478  1.0000
  H   H1        1.0  0.5043053220969631  0.7036239018706544  0.5499999999999479  1.0000
  H   H2        1.0  0.45406308583635785  0.704967052808021  0.5499999999999479  1.0000
  H   H3        1.0  0.5063478165741588  0.7341038977890609  0.549999999999948  1.0000
  H   H4        1.0  0.4521474652074537  0.6764343631129633  0.5499999999999476  1.0000
  H   H5        1.0  0.4418627947611942  0.6136926714912135  0.5499999999999474  1.0000
  H   H6        1.0  0.5090998053614421  0.7971268623371028  0.549999999999948  1.0000
  H   H7        1.0  0.4482887801068396  0.7550115965003792  0.5499999999999479  1.0000
  H   H8        1.0  0.5027540785361932  0.6448591054579351  0.5499999999999475  1.0000
  B   B3        1.0  0.4059514379967417  0.7769890894955909  0.549999999999948  1.0000
  B   B4        1.0  0.3353790967668855  0.7484106604400987  0.5499999999999479  1.0000
  O   O5        1.0  0.32853046845033657  0.758533856248598  0.5499999999999479  1.0000
  C   C19       1.0  0.35951498400605186  0.7450275239763392  0.5499999999999479  1.0000
  C   C20       1.0  0.31113954313408854  0.7456927560073013  0.5499999999999479  1.0000
  C   C21       1.0  0.29805954691037934  0.7479216895909948  0.5499999999999479  1.0000
  C   C22       1.0  0.2817701470694741  0.732513218222887  0.5499999999999478  1.0000
  O   O6        1.0  0.4117652771180448  0.7659214933017423  0.5499999999999479  1.0000
  C   C23       1.0  0.38217969796086937  0.7813598563086508  0.549999999999948  1.0000
  C   C24       1.0  0.4290503356566507  0.7775011712059262  0.549999999999948  1.0000
  C   C25       1.0  0.440691705946723  0.7733175767183675  0.5499999999999481  1.0000
  C   C26       1.0  0.45735845482995185  0.7871458431371655  0.549999999999948  1.0000
  O   O7        1.0  0.4184850940111872  0.7949361710877173  0.549999999999948  1.0000
  C   C27       1.0  0.3760728823714869  0.7517396947079142  0.5499999999999479  1.0000
  C   C28       1.0  0.43332937997429  0.7950648579039093  0.549999999999948  1.0000
  C   C29       1.0  0.4498047595999888  0.8091259457811545  0.5499999999999481  1.0000
  C   C30       1.0  0.46213666436214834  0.8051073042538653  0.549999999999948  1.0000
  O   O8        1.0  0.3236465965170536  0.7302595973272987  0.5499999999999478  1.0000
  C   C31       1.0  0.36526543225023417  0.7745033105857776  0.5499999999999481  1.0000
  C   C32       1.0  0.30836788584594876  0.7287341674245448  0.5499999999999478  1.0000
  C   C33       1.0  0.29271993801503676  0.7136203213656518  0.5499999999999478  1.0000
  C   C34       1.0  0.279243658184958  0.7154451436950551  0.5499999999999478  1.0000
  C   C35       1.0  0.35351127845429026  0.7560864696073784  0.5499999999999479  1.0000
  C   C36       1.0  0.38796910749447544  0.7700519686364404  0.5499999999999481  1.0000
  H   H9        1.0  0.3507917362838099  0.7305615745680212  0.5499999999999478  1.0000
  H   H10       1.0  0.3912720624748222  0.7958668076267458  0.549999999999948  1.0000
  H   H11       1.0  0.38001233837020737  0.7424053342574459  0.5499999999999479  1.0000
  H   H12       1.0  0.36090870059475266  0.7835600523006798  0.549999999999948  1.0000
  H   H13       1.0  0.29994859887185765  0.7611446425203305  0.5499999999999479  1.0000
  H   H14       1.0  0.43732687586162294  0.759486320065109  0.5499999999999479  1.0000
  H   H15       1.0  0.45351934534757854  0.8230777973810037  0.5499999999999481  1.0000
  H   H16       1.0  0.29047271481615433  0.7002353418937571  0.5499999999999479  1.0000
  B   B5        1.0  0.5216088621010279  0.8783692069413974  0.5499999999999483  1.0000
  B   B6        1.0  0.5643069672228725  0.958427474906745  0.5499999999999485  1.0000
  O   O9        1.0  0.5813451613662063  0.9684967560572488  0.5499999999999485  1.0000
  C   C37       1.0  0.5364556232380207  0.9283912639652515  0.5499999999999484  1.0000
  C   C38       1.0  0.5863358765088382  0.9870097103869928  0.5499999999999486  1.0000
  C   C39       1.0  0.6019366083264047  0.0026427293422520183  0.5499999999999486  1.0000
  C   C40       1.0  0.6038444459798084  0.019594954616520003  0.5499999999999486  1.0000
  O   O10       1.0  0.5046696340523544  0.8693530972849864  0.5499999999999482  1.0000
  C   C41       1.0  0.550079138778349  0.9081424699468654  0.5499999999999483  1.0000
  C   C42       1.0  0.49854173673250657  0.8507554781070015  0.5499999999999482  1.0000
  C   C43       1.0  0.4824824977129792  0.8364744564557568  0.5499999999999481  1.0000
  C   C44       1.0  0.47862434943309556  0.8188188975631324  0.5499999999999481  1.0000
  O   O11       1.0  0.5267254932493504  0.8664932839357284  0.5499999999999482  1.0000
  C   C45       1.0  0.526493288907146  0.9095982322411894  0.5499999999999483  1.0000
  C   C46       1.0  0.5115043704126251  0.8484760699397903  0.5499999999999482  1.0000
  C   C47       1.0  0.5080977579260422  0.8306902324724821  0.5499999999999481  1.0000
  C   C48       1.0  0.4909907671682832  0.815255698670317  0.5499999999999481  1.0000
  O   O12       1.0  0.5581846686467361  0.9693343300969063  0.5499999999999485  1.0000
  C   C49       1.0  0.560249745795843  0.9273279832998751  0.5499999999999484  1.0000
  C   C50       1.0  0.5724437196268501  0.9876302793747714  0.5499999999999486  1.0000
  C   C51       1.0  0.5739336783027259  0.004283586406382215  0.5499999999999486  1.0000
  C   C52       1.0  0.5900104151919306  0.020696905941151762  0.5499999999999488  1.0000
  C   C53       1.0  0.5536244184985633  0.9379192854090688  0.5499999999999484  1.0000
  C   C54       1.0  0.5328750769368253  0.898823817727528  0.5499999999999483  1.0000
  H   H17       1.0  0.5307595450450429  0.9361366017730796  0.5499999999999484  1.0000
  H   H18       1.0  0.5554513215757495  0.8999727506636842  0.5499999999999483  1.0000
  H   H19       1.0  0.513161172993494  0.9029638382611882  0.5499999999999483  1.0000
  H   H20       1.0  0.5737189568215942  0.9344041120475244  0.5499999999999484  1.0000
  H   H21       1.0  0.6129033596070759  0.0022021164237527343  0.5499999999999486  1.0000
  H   H22       1.0  0.4724312718989588  0.838532268948467  0.5499999999999481  1.0000
  H   H23       1.0  0.517901700116929  0.8282334043396447  0.5499999999999481  1.0000
  H   H24       1.0  0.563181484731478  0.005126233341961554  0.5499999999999486  1.0000
  B   B7        1.0  0.6762851400301434  0.06353897461049057  0.5499999999999496  1.0000
  B   B8        1.0  0.7477033243605429  0.08786592683280052  0.5499999999999496  1.0000
  O   O13       1.0  0.7539182837768847  0.07694316747125511  0.5499999999999496  1.0000
  C   C55       1.0  0.7243213427896594  0.09340588498457232  0.5499999999999499  1.0000
  C   C56       1.0  0.7721008956809117  0.08939900717229332  0.5499999999999496  1.0000
  C   C57       1.0  0.7857053479176962  0.0871186724367748  0.5499999999999496  1.0000
  C   C58       1.0  0.8028265951291469  0.10305811666700199  0.5499999999999498  1.0000
  O   O14       1.0  0.6706446477174982  0.07497117146765765  0.5499999999999496  1.0000
  C   C59       1.0  0.6994518223741664  0.057444620790529914  0.5499999999999498  1.0000
  C   C60       1.0  0.6525489113771069  0.06325243532733239  0.5499999999999496  1.0000
  C   C61       1.0  0.6397667782919715  0.06666364579261073  0.5499999999999496  1.0000
  C   C62       1.0  0.6224745216447183  0.05164813570617984  0.5499999999999495  1.0000
  O   O15       1.0  0.6632271059982797  0.045706199242758  0.5499999999999495  1.0000
  C   C63       1.0  0.7075069801558573  0.08777782159152371  0.5499999999999496  1.0000
  C   C64       1.0  0.6483987432063261  0.04573531844661421  0.5499999999999495  1.0000
  C   C65       1.0  0.632133115971114  0.031397688473246546  0.5499999999999495  1.0000
  C   C66       1.0  0.6191826282710209  0.03424407096885249  0.5499999999999495  1.0000
  O   O16       1.0  0.7603369638417016  0.1058444186500544  0.5499999999999498  1.0000
  C   C67       1.0  0.7164580949726703  0.06313698543212312  0.5499999999999496  1.0000
  C   C68       1.0  0.7754253127523422  0.10659466930093905  0.5499999999999498  1.0000
  C   C69       1.0  0.7912609690200679  0.12151713071824712  0.5499999999999498  1.0000
  C   C70       1.0  0.8048748589753633  0.11989986359309318  0.5499999999999498  1.0000
  C   C71       1.0  0.729359705847605  0.08134028670814619  0.5499999999999496  1.0000
  C   C72       1.0  0.6945326724790968  0.06964322836087962  0.5499999999999496  1.0000
  H   H25       1.0  0.7339529125215957  0.1077461365698063  0.5499999999999498  1.0000
  H   H26       1.0  0.6896236816272624  0.043100003592982786  0.5499999999999495  1.0000
  H   H27       1.0  0.7041527081709342  0.09774932653592715  0.5499999999999498  1.0000
  H   H28       1.0  0.7200398808375658  0.053304840983189244  0.5499999999999495  1.0000
  H   H29       1.0  0.7837488796743979  0.07386431919799175  0.5499999999999496  1.0000
  H   H30       1.0  0.6425364382849714  0.08026885844035223  0.5499999999999496  1.0000
  H   H31       1.0  0.62900051394273  0.017651610731333204  0.5499999999999494  1.0000
  H   H32       1.0  0.793585775787005  0.13493598018268202  0.5499999999999499  1.0000
  B   B9        1.0  0.5759748700948627  0.0793356339021133  0.5499999999999496  1.0000
  B   B10       1.0  0.54305001316191  0.12126568024278829  0.5499999999999498  1.0000
  O   O17       1.0  0.5515133467050699  0.13993777085369238  0.5499999999999499  1.0000
  C   C73       1.0  0.542555878180403  0.09161754458954582  0.5499999999999499  1.0000
  C   C74       1.0  0.5391741441631596  0.14454203849975003  0.5499999999999499  1.0000
  C   C75       1.0  0.5409155865372399  0.16133204128045364  0.5499999999999501  1.0000
  C   C76       1.0  0.5268146924420546  0.16266778739141305  0.54999999999995  1.0000
  O   O18       1.0  0.5675114775653705  0.06066362176706703  0.5499999999999498  1.0000
  C   C77       1.0  0.5764689368977055  0.1089838058626241  0.5499999999999498  1.0000
  C   C78       1.0  0.5798506973693726  0.056059399739223234  0.5499999999999498  1.0000
  C   C79       1.0  0.5781092393005  0.03926936277548792  0.5499999999999495  1.0000
  C   C80       1.0  0.5922101546218197  0.03793363463798848  0.5499999999999495  1.0000
  O   O19       1.0  0.5929216596922672  0.08689721927786334  0.5499999999999496  1.0000
  C   C81       1.0  0.5504032049800438  0.08171593994570761  0.5499999999999496  1.0000
  C   C82       1.0  0.5952370114996707  0.0717581063580443  0.5499999999999496  1.0000
  C   C83       1.0  0.6095227373820152  0.07089509708780048  0.5499999999999496  1.0000
  C   C84       1.0  0.6080063657857165  0.053571406968856115  0.5499999999999495  1.0000
  O   O20       1.0  0.5261032063385563  0.11370421723650254  0.5499999999999498  1.0000
  C   C85       1.0  0.5686216776386807  0.11888547804515405  0.5499999999999498  1.0000
  C   C86       1.0  0.5237878094883691  0.12884331143525074  0.5499999999999499  1.0000
  C   C87       1.0  0.509502106598698  0.12970633411138058  0.5499999999999499  1.0000
  C   C88       1.0  0.511018460907455  0.14703000640870328  0.5499999999999499  1.0000
  C   C89       1.0  0.551441789749714  0.11050230036823983  0.5499999999999498  1.0000
  C   C90       1.0  0.5675829652489569  0.09009920880289075  0.5499999999999499  1.0000
  H   H33       1.0  0.5290434338838649  0.08457193810798401  0.5499999999999496  1.0000
  H   H34       1.0  0.589981396482933  0.11602946705262317  0.5499999999999498  1.0000
  H   H35       1.0  0.5430034238338391  0.066936337790346  0.5499999999999496  1.0000
  H   H36       1.0  0.5760214107773679  0.1336650723004807  0.5499999999999499  1.0000
  H   H37       1.0  0.5530258510356013  0.17370755564696153  0.54999999999995  1.0000
  H   H38       1.0  0.5659989886433351  0.026893851446374878  0.5499999999999496  1.0000
  H   H39       1.0  0.6217870303468185  0.08304841649587498  0.5499999999999496  1.0000
  H   H40       1.0  0.4972378099868604  0.11755301130348889  0.5499999999999498  1.0000
  B   B11       1.0  0.4427397006809914  0.13706245264448252  0.5499999999999474  1.0000
  B   B12       1.0  0.3713215163505899  0.11273550042216299  0.549999999999947  1.0000
  O   O21       1.0  0.36510655693424476  0.12365825978370548  0.549999999999947  1.0000
  C   C91       1.0  0.3947034979214765  0.1071955422703966  0.5499999999999471  1.0000
  C   C92       1.0  0.34692394503021823  0.11120242008266394  0.5499999999999471  1.0000
  C   C93       1.0  0.3333194927934308  0.11348275481817786  0.549999999999947  1.0000
  C   C94       1.0  0.31619824558198145  0.09754331058794766  0.5499999999999471  1.0000
  O   O22       1.0  0.44838019299363724  0.1256302557873161  0.5499999999999474  1.0000
  C   C95       1.0  0.4195730183369664  0.14315680646444015  0.5499999999999474  1.0000
  C   C96       1.0  0.46647592933402804  0.1373489919276416  0.5499999999999474  1.0000
  C   C97       1.0  0.4792580624191628  0.13393778146236288  0.5499999999999474  1.0000
  C   C98       1.0  0.49655031906641567  0.14895329154879286  0.5499999999999473  1.0000
  O   O23       1.0  0.4557977347128547  0.1548952280122154  0.5499999999999473  1.0000
  C   C99       1.0  0.4115178605552784  0.11282360566344735  0.549999999999947  1.0000
  C   C100      1.0  0.4706260975048088  0.15486610880835971  0.5499999999999473  1.0000
  C   C101      1.0  0.4868917247400212  0.16920373878172734  0.5499999999999475  1.0000
  C   C102      1.0  0.4998422124401142  0.16635735628612072  0.5499999999999475  1.0000
  O   O24       1.0  0.3586878768694333  0.09475700860490824  0.5499999999999471  1.0000
  C   C103      1.0  0.40256674573846146  0.13746444182284445  0.5499999999999474  1.0000
  C   C104      1.0  0.3435995279587913  0.09400675795401972  0.5499999999999471  1.0000
  C   C105      1.0  0.32776387169106713  0.07908429653670918  0.5499999999999469  1.0000
  C   C106      1.0  0.3141499817357694  0.08070156366185859  0.5499999999999469  1.0000
  C   C107      1.0  0.3896651348635285  0.11926114054682065  0.549999999999947  1.0000
  C   C108      1.0  0.4244921682320377  0.13095819889409194  0.5499999999999474  1.0000
  H   H41       1.0  0.3850719281895417  0.09285529068516225  0.5499999999999471  1.0000
  H   H42       1.0  0.42940115908386955  0.15750142366198772  0.5499999999999473  1.0000
  H   H43       1.0  0.41487213254020255  0.10285210071904498  0.5499999999999471  1.0000
  H   H44       1.0  0.39898495987356386  0.14729658627177666  0.5499999999999473  1.0000
  H   H45       1.0  0.33527596103672597  0.1267371080569595  0.5499999999999474  1.0000
  H   H46       1.0  0.4764884024261625  0.12033256881462123  0.549999999999947  1.0000
  H   H47       1.0  0.49002432676840557  0.1829498165236409  0.5499999999999474  1.0000
  H   H48       1.0  0.32543906492413344  0.06566544707227565  0.549999999999947  1.0000
  B   B13       1.0  0.5547177646958229  0.2421737874851253  0.5499999999999478  1.0000
  B   B14       1.0  0.5974158643307188  0.3222320576018852  0.5499999999999479  1.0000
  O   O25       1.0  0.6143551754298283  0.33124831439207525  0.5499999999999479  1.0000
  C   C109      1.0  0.5689456307913026  0.2924589069641687  0.5499999999999478  1.0000
  C   C110      1.0  0.6204831145363175  0.3498459589824593  0.549999999999948  1.0000
  C   C111      1.0  0.6365423228671835  0.3641269656602727  0.549999999999948  1.0000
  C   C112      1.0  0.6404004848443315  0.3817825172168152  0.5499999999999481  1.0000
  O   O26       1.0  0.5376796477643733  0.2321046532560647  0.5499999999999475  1.0000
  C   C113      1.0  0.5825691470039257  0.2722101132716888  0.5499999999999479  1.0000
  C   C114      1.0  0.5326889744327132  0.21359172744230948  0.5499999999999475  1.0000
  C   C115      1.0  0.5170882114493713  0.19795869008995168  0.5499999999999476  1.0000
  C   C116      1.0  0.5151803895693804  0.1810064601847976  0.5499999999999474  1.0000
  O   O27       1.0  0.560840179365652  0.23126707882070252  0.5499999999999475  1.0000
  C   C117      1.0  0.5587750826218841  0.2732733869639782  0.5499999999999479  1.0000
  C   C118      1.0  0.5465811132288426  0.21297115978645534  0.5499999999999475  1.0000
  C   C119      1.0  0.5450911659312282  0.1963178413585072  0.5499999999999474  1.0000
  C   C120      1.0  0.5290144132424901  0.17990452229164966  0.5499999999999474  1.0000
  O   O28       1.0  0.5922993529166053  0.33410812326374634  0.5499999999999479  1.0000
  C   C121      1.0  0.5925315394662911  0.2910031389371559  0.5499999999999478  1.0000
  C   C122      1.0  0.6075204641889774  0.35212537093371105  0.549999999999948  1.0000
  C   C123      1.0  0.61092708610583  0.3699111948371709  0.549999999999948  1.0000
  C   C124      1.0  0.6280340625685944  0.3853457317466722  0.5499999999999481  1.0000
  C   C125      1.0  0.5861498507475216  0.3017777900021131  0.5499999999999478  1.0000
  C   C126      1.0  0.5654005056331537  0.2626823222706212  0.5499999999999476  1.0000
  H   H49       1.0  0.5635734989018865  0.300628665474658  0.5499999999999478  1.0000
  H   H50       1.0  0.5882652756408668  0.26446481437845865  0.5499999999999476  1.0000
  H   H51       1.0  0.545305868028172  0.2661973041056886  0.5499999999999476  1.0000
  H   H52       1.0  0.605863652052632  0.29763757862074863  0.5499999999999478  1.0000
  H   H53       1.0  0.6465935495967782  0.3620691405624823  0.549999999999948  1.0000
  H   H54       1.0  0.5061214623274224  0.1983992908746289  0.5499999999999476  1.0000
  H   H55       1.0  0.5558433565043569  0.19547519489623955  0.5499999999999474  1.0000
  H   H56       1.0  0.6011231412243528  0.37236802393189117  0.549999999999948  1.0000
  B   B15       1.0  0.7130734027144636  0.42361233775936485  0.5499999999999471  1.0000
  B   B16       1.0  0.783645743944321  0.45219076681485654  0.5499999999999474  1.0000
  O   O29       1.0  0.79049437226087  0.4420675710063572  0.549999999999947  1.0000
  C   C127      1.0  0.7595098567051539  0.4555739032786155  0.5499999999999474  1.0000
  C   C128      1.0  0.8078852975771187  0.4549086712476546  0.5499999999999474  1.0000
  C   C129      1.0  0.8209652938008282  0.45267973766396163  0.5499999999999474  1.0000
  C   C130      1.0  0.8372546936417335  0.4680882090320701  0.5499999999999473  1.0000
  O   O30       1.0  0.7072595635931616  0.43467993395321425  0.549999999999947  1.0000
  C   C131      1.0  0.7368451427503361  0.419241570946304  0.5499999999999471  1.0000
  C   C132      1.0  0.6899745050545554  0.42310025604903156  0.5499999999999471  1.0000
  C   C133      1.0  0.6783331347644844  0.4272838505365917  0.5499999999999471  1.0000
  C   C134      1.0  0.661666385881255  0.4134555841177954  0.5499999999999471  1.0000
  O   O31       1.0  0.7005397467000172  0.40566525616723864  0.5499999999999469  1.0000
  C   C135      1.0  0.7429519583397189  0.4488617325470408  0.5499999999999474  1.0000
  C   C136      1.0  0.6856954607369146  0.4055365693510479  0.5499999999999469  1.0000
  C   C137      1.0  0.6692200811112148  0.3914754814738036  0.549999999999947  1.0000
  C   C138      1.0  0.6568881763490563  0.395494123001095  0.549999999999947  1.0000
  O   O32       1.0  0.7953782441941525  0.4703418299276563  0.5499999999999473  1.0000
  C   C139      1.0  0.7537594084609714  0.426098116669177  0.5499999999999471  1.0000
  C   C140      1.0  0.8106569548652577  0.47186725983041083  0.5499999999999473  1.0000
  C   C141      1.0  0.82630490269617  0.48698110588930427  0.5499999999999475  1.0000
  C   C142      1.0  0.8397811825262492  0.4851562835599018  0.5499999999999475  1.0000
  C   C143      1.0  0.7655135622569157  0.44451495764757654  0.549999999999947  1.0000
  C   C144      1.0  0.7310557332167301  0.43054945861851474  0.5499999999999471  1.0000
  H   H57       1.0  0.7682331044273959  0.47003985268693366  0.5499999999999473  1.0000
  H   H58       1.0  0.7277527782363826  0.40473461962820906  0.5499999999999469  1.0000
  H   H59       1.0  0.7390125023409988  0.4581960929975092  0.5499999999999474  1.0000
  H   H60       1.0  0.7581161401164533  0.41704137495427496  0.5499999999999471  1.0000
  H   H61       1.0  0.8190762418393501  0.4394567847346262  0.549999999999947  1.0000
  H   H62       1.0  0.6816979648495859  0.4411151071898511  0.549999999999947  1.0000
  H   H63       1.0  0.6655054953636238  0.3775236298739541  0.549999999999947  1.0000
  H   H64       1.0  0.8285521258950517  0.5003660853611988  0.5499999999999474  1.0000
  B   B17       1.0  0.6383249484815916  0.46135696030804607  0.5499999999999474  1.0000
  B   B18       1.0  0.6426946494077416  0.5310773109592927  0.5499999999999476  1.0000
  O   O33       1.0  0.6576354185638303  0.5474941458405382  0.5499999999999475  1.0000
  C   C145      1.0  0.6257820665676289  0.4964117436047979  0.5499999999999475  1.0000
  C   C146      1.0  0.6537284733298488  0.5610661392181789  0.5499999999999478  1.0000
  C   C147      1.0  0.6638440958727417  0.5799207014577711  0.5499999999999476  1.0000
  C   C148      1.0  0.6565983756736077  0.5903959209149755  0.5499999999999476  1.0000
  O   O34       1.0  0.6243287305458612  0.443969258556244  0.549999999999947  1.0000
  C   C149      1.0  0.6536481178384764  0.49541226199909466  0.5499999999999475  1.0000
  C   C150      1.0  0.6306136515048602  0.4320185456318131  0.5499999999999471  1.0000
  C   C151      1.0  0.623187831979058  0.41283998943257655  0.5499999999999471  1.0000
  C   C152      1.0  0.6338035984965112  0.4055344593935119  0.5499999999999469  1.0000
  O   O35       1.0  0.6524769026465459  0.4612362260394939  0.5499999999999474  1.0000
  C   C153      1.0  0.624638730222674  0.47952600881425106  0.5499999999999473  1.0000
  C   C154      1.0  0.647541879691685  0.4430672485647147  0.549999999999947  1.0000
  C   C155      1.0  0.6574343307413408  0.4365399745780346  0.549999999999947  1.0000
  C   C156      1.0  0.6508000927856837  0.41807015842749207  0.5499999999999471  1.0000
  O   O36       1.0  0.6296174623066815  0.5333160650473947  0.5499999999999475  1.0000
  C   C157      1.0  0.6547507248244279  0.5116901153633213  0.5499999999999474  1.0000
  C   C158      1.0  0.6368486670408279  0.5525185732146544  0.5499999999999475  1.0000
  C   C159      1.0  0.6295547688588331  0.5623734348084419  0.5499999999999478  1.0000
  C   C160      1.0  0.6394553395575484  0.5814427969803109  0.5499999999999476  1.0000
  C   C161      1.0  0.6409990619664073  0.5129089503841243  0.5499999999999474  1.0000
  C   C162      1.0  0.6387214433974245  0.4787877703106203  0.5499999999999473  1.0000
  H   H65       1.0  0.6147195186142518  0.4969775253843114  0.5499999999999475  1.0000
  H   H66       1.0  0.6649617548748566  0.49563437444694464  0.5499999999999475  1.0000
  H   H67       1.0  0.6126770241370557  0.4664975294659064  0.5499999999999473  1.0000
  H   H68       1.0  0.666877375503761  0.5241670641420029  0.5499999999999476  1.0000
  H   H69       1.0  0.6771620459500179  0.5869087557637521  0.5499999999999476  1.0000
  H   H70       1.0  0.6099250353497676  0.4034745649178651  0.5499999999999469  1.0000
  H   H71       1.0  0.6707360606043707  0.4455898307545832  0.549999999999947  1.0000
  H   H72       1.0  0.6162707621750182  0.555742321797025  0.5499999999999478  1.0000
  B   B19       1.0  0.8953498547145095  0.5607858648834602  0.5499999999999498  1.0000
  B   B20       1.0  0.9348646132107858  0.6398154020211575  0.54999999999995  1.0000
  O   O37       1.0  0.951842132250977  0.6507079680835826  0.54999999999995  1.0000
  C   C163      1.0  0.9079762367638502  0.6095637213019436  0.5499999999999499  1.0000
  C   C164      1.0  0.9555881377721172  0.6687608793629369  0.5499999999999501  1.0000
  C   C165      1.0  0.9705276896378131  0.6853718394832713  0.5499999999999501  1.0000
  C   C166      1.0  0.9704859036645882  0.7013916834884787  0.5499999999999502  1.0000
  O   O38       1.0  0.8784130783604034  0.550995578324027  0.5499999999999496  1.0000
  C   C167      1.0  0.9229451332586545  0.5908237920054532  0.5499999999999498  1.0000
  C   C168      1.0  0.8733871829068354  0.5327457664919193  0.5499999999999496  1.0000
  C   C169      1.0  0.857791718353461  0.5174964526007089  0.5499999999999495  1.0000
  C   C170      1.0  0.8556993432853826  0.5005631291573643  0.5499999999999495  1.0000
  O   O39       1.0  0.9014349221895132  0.5498934461340672  0.5499999999999496  1.0000
  C   C171      1.0  0.898713230908292  0.5910376442285732  0.54999999999995  1.0000
  C   C172      1.0  0.8871280149338517  0.5318405957183744  0.5499999999999496  1.0000
  C   C173      1.0  0.8854566818913059  0.5152296201920996  0.5499999999999495  1.0000
  C   C174      1.0  0.8693949562022258  0.4992096638032178  0.5499999999999495  1.0000
  O   O40       1.0  0.9277181925999948  0.6496058301004745  0.54999999999995  1.0000
  C   C175      1.0  0.9324220650068432  0.6097775974978218  0.5499999999999499  1.0000
  C   C176      1.0  0.9409420838863518  0.6678556387589594  0.5499999999999501  1.0000
  C   C177      1.0  0.9405958778753583  0.6831049280274862  0.5499999999999501  1.0000
  C   C178      1.0  0.9554368731074308  0.7000383579504951  0.5499999999999502  1.0000
  C   C179      1.0  0.9250817515028392  0.6195929306671529  0.5499999999999499  1.0000
  C   C180      1.0  0.9057896461353229  0.5810086772428514  0.5499999999999498  1.0000
  H   H73       1.0  0.9017086772234778  0.6166375358403358  0.5499999999999499  1.0000
  H   H74       1.0  0.9288716257189806  0.5832780969666166  0.5499999999999498  1.0000
  H   H75       1.0  0.8853718525122567  0.5839638611414102  0.5499999999999498  1.0000
  H   H76       1.0  0.9458942409740942  0.6173233452725612  0.5499999999999499  1.0000
  H   H77       1.0  0.9822302847101311  0.6864543236343107  0.5499999999999501  1.0000
  H   H78       1.0  0.8469547615620944  0.5181820646034165  0.5499999999999495  1.0000
  H   H79       1.0  0.8960767423219292  0.5141471208425978  0.5499999999999495  1.0000
  H   H80       1.0  0.9290733436892125  0.682419325504234  0.5499999999999501  1.0000
  B   B21       1.0  0.8792202780309638  0.4387052654206035  0.5499999999999493  1.0000
  B   B22       1.0  0.9061772086437992  0.39362929754289655  0.5499999999999492  1.0000
  O   O41       1.0  0.8969586115414526  0.3751013382950572  0.5499999999999491  1.0000
  C   C181      1.0  0.9091191732319174  0.42361130258504837  0.5499999999999494  1.0000
  C   C182      1.0  0.9087953040798822  0.3702232366289628  0.5499999999999491  1.0000
  C   C183      1.0  0.906926544760144  0.35355675726397834  0.5499999999999492  1.0000
  C   C184      1.0  0.9212203515226716  0.35283261001160643  0.5499999999999492  1.0000
  O   O42       1.0  0.8889108452593625  0.457193028097407  0.5499999999999495  1.0000
  C   C185      1.0  0.875794998194301  0.40834927402194954  0.5499999999999492  1.0000
  C   C186      1.0  0.8776911892802141  0.4627613285802048  0.5499999999999494  1.0000
  C   C187      1.0  0.8805417374208574  0.47976613303555643  0.5499999999999494  1.0000
  C   C188      1.0  0.8670100107853591  0.4816471279924463  0.5499999999999494  1.0000
  O   O43       1.0  0.862676715487764  0.43221091195016753  0.5499999999999493  1.0000
  C   C189      1.0  0.9027869486066437  0.4342614548115733  0.5499999999999493  1.0000
  C   C190      1.0  0.8618863650091879  0.4477116812570044  0.5499999999999495  1.0000
  C   C191      1.0  0.8484737214210654  0.44917651621859706  0.5499999999999495  1.0000
  C   C192      1.0  0.8510138629868228  0.46633336356651195  0.5499999999999494  1.0000
  O   O44       1.0  0.9228093854021983  0.40070967460566886  0.5499999999999492  1.0000
  C   C193      1.0  0.8822001753367685  0.39757632685185484  0.5499999999999492  1.0000
  C   C194      1.0  0.924280234530933  0.38578263691699377  0.5499999999999493  1.0000
  C   C195      1.0  0.9381790892143734  0.3854095478187725  0.5499999999999493  1.0000
  C   C196      1.0  0.9367190695876494  0.36889042228297625  0.5499999999999491  1.0000
  C   C197      1.0  0.8990795148040863  0.4049689074660009  0.5499999999999492  1.0000
  C   C198      1.0  0.8859574482209552  0.42701414685716166  0.5499999999999493  1.0000
  H   H81       1.0  0.9223901378414541  0.4299486819895197  0.5499999999999493  1.0000
  H   H82       1.0  0.862501017171848  0.402203347214395  0.5499999999999492  1.0000
  H   H83       1.0  0.9111648852978622  0.44881469779540634  0.5499999999999495  1.0000
  H   H84       1.0  0.8739607667228514  0.3829440801480296  0.5499999999999493  1.0000
  H   H85       1.0  0.8948820484648978  0.3410931014881057  0.5499999999999492  1.0000
  H   H86       1.0  0.8929145240805816  0.4917471693932909  0.5499999999999496  1.0000
  H   H87       1.0  0.835969084144886  0.4374252901226615  0.5499999999999493  1.0000
  H   H88       1.0  0.9503756551674555  0.3976630975287448  0.5499999999999492  1.0000
  B   B23       1.0  0.040815726823119895  0.7618961750997645  0.5499999999999485  1.0000
  B   B24       1.0  0.11284862490111126  0.8069721710668445  0.5499999999999489  1.0000
  O   O45       1.0  0.12240042774803221  0.799891793221326  0.5499999999999486  1.0000
  C   C199      1.0  0.08492455291650383  0.8030251133230213  0.5499999999999486  1.0000
  C   C200      1.0  0.13879834281088022  0.8148188438056504  0.5499999999999489  1.0000
  C   C201      1.0  0.15307028935036154  0.8151920054629572  0.5499999999999489  1.0000
  C   C202      1.0  0.1681292950692538  0.8317110543041542  0.5499999999999488  1.0000
  O   O46       1.0  0.030766515705808663  0.7683904853616794  0.5499999999999485  1.0000
  C   C203      1.0  0.06882622047515313  0.766339994951807  0.5499999999999485  1.0000
  C   C204      1.0  0.014475368323853694  0.7528897064401778  0.5499999999999486  1.0000
  C   C205      1.0  0.9995978832657  0.7514248001377904  0.5499999999999486  1.0000
  C   C206      1.0  0.9849812760219491  0.7342680318194645  0.5499999999999486  1.0000
  O   O47       1.0  0.032018537539641345  0.743408374346667  0.5499999999999486  1.0000
  C   C207      1.0  0.06774642560656574  0.7922521599327939  0.5499999999999488  1.0000
  C   C208      1.0  0.015230608067147716  0.7378400990480048  0.5499999999999486  1.0000
  C   C209      1.0  0.001076364797777481  0.7208352355245318  0.5499999999999485  1.0000
  C   C210      1.0  0.9856635421849237  0.7189541932179359  0.5499999999999485  1.0000
  O   O48       1.0  0.12215798437671674  0.8255001261090043  0.5499999999999489  1.0000
  C   C211      1.0  0.08580859408431038  0.7769901493500448  0.5499999999999488  1.0000
  C   C212      1.0  0.13887275086598985  0.8303782075729434  0.5499999999999488  1.0000
  C   C213      1.0  0.1536704711257297  0.8470447588143241  0.5499999999999492  1.0000
  C   C214      1.0  0.16868852967090084  0.8477689461321052  0.5499999999999492  1.0000
  C   C215      1.0  0.0944113209239844  0.7956325545052285  0.5499999999999486  1.0000
  C   C216      1.0  0.05924401641475177  0.7735872742422453  0.5499999999999488  1.0000
  H   H89       1.0  0.09131737945400263  0.8176573611155158  0.5499999999999489  1.0000
  H   H90       1.0  0.06265092230939016  0.7517867464252966  0.5499999999999486  1.0000
  H   H91       1.0  0.06059836399373076  0.7983980714180385  0.5499999999999486  1.0000
  H   H92       1.0  0.09274218999025512  0.7706527847190857  0.5499999999999488  1.0000
  H   H93       1.0  0.15301328753046475  0.8029384027794848  0.5499999999999486  1.0000
  H   H94       1.0  0.9988444763235542  0.7631760655729392  0.5499999999999485  1.0000
  H   H95       1.0  0.0014681075497499528  0.7088542309244044  0.5499999999999485  1.0000
  H   H96       1.0  0.1540896472355512  0.8595083818314639  0.5499999999999492  1.0000
  B   B25       1.0  0.9317557879009905  0.7484106159648393  0.5499999999999486  1.0000
  B   B26       1.0  0.8897618544787287  0.7769890186012323  0.5499999999999488  1.0000
  O   O49       1.0  0.8951751618356247  0.7949361040036002  0.5499999999999488  1.0000
  C   C217      1.0  0.8943909418521391  0.7517396325108551  0.5499999999999486  1.0000
  C   C218      1.0  0.8804595612121919  0.7950648512469729  0.5499999999999486  1.0000
  C   C219      1.0  0.8780451968965081  0.8091258325904469  0.5499999999999489  1.0000
  C   C220      1.0  0.8616947490087257  0.8051071982968324  0.5499999999999486  1.0000
  O   O50       1.0  0.9253371515029096  0.7302596055745522  0.5499999999999484  1.0000
  C   C221      1.0  0.9279619983851635  0.7745032622071956  0.5499999999999488  1.0000
  C   C222      1.0  0.9390904568191439  0.7287342035527662  0.5499999999999484  1.0000
  C   C223      1.0  0.9396246137125737  0.7136204014779101  0.5499999999999485  1.0000
  C   C224      1.0  0.9549256641885394  0.7154452693700692  0.5499999999999485  1.0000
  O   O51       1.0  0.9487275727885418  0.7585339146252287  0.5499999999999486  1.0000
  C   C225      1.0  0.9042367332649405  0.7450275414905302  0.5499999999999486  1.0000
  C   C226      1.0  0.9532773347314628  0.7456927973645864  0.5499999999999486  1.0000
  C   C227      1.0  0.9685863526693583  0.74792182672255  0.5499999999999486  1.0000
  C   C228      1.0  0.9694673038944871  0.73251326825625  0.5499999999999484  1.0000
  O   O52       1.0  0.8728803427168439  0.7659214715239159  0.5499999999999485  1.0000
  C   C229      1.0  0.9179043343738434  0.7813598779857474  0.5499999999999488  1.0000
  C   C230      1.0  0.8671749406198056  0.7775011195094019  0.5499999999999488  1.0000
  C   C231      1.0  0.8513499472415726  0.7733174635669525  0.5499999999999488  1.0000
  C   C232      1.0  0.848511401657284  0.7871457602162149  0.5499999999999488  1.0000
  C   C233      1.0  0.9008068725908648  0.7700520080838256  0.5499999999999488  1.0000
  C   C234      1.0  0.9212992443310128  0.7560865611949675  0.5499999999999486  1.0000
  H   H97       1.0  0.8811171282918007  0.7424053075469536  0.5499999999999486  1.0000
  H   H98       1.0  0.9413754803972486  0.7835600692165553  0.5499999999999488  1.0000
  H   H99       1.0  0.8984939957826276  0.7305615791337481  0.5499999999999484  1.0000
  H   H100      1.0  0.9233188560534926  0.7958668023997404  0.5499999999999486  1.0000
  H   H101      1.0  0.8882825121222465  0.8230777309333097  0.5499999999999489  1.0000
  H   H102      1.0  0.9284868238386604  0.7002353887918564  0.5499999999999485  1.0000
  H   H103      1.0  0.9799202202693412  0.761144722155656  0.5499999999999486  1.0000
  H   H104      1.0  0.84088354481584  0.7594862465206673  0.5499999999999486  1.0000
  B   B27       1.0  0.7772687043576405  0.739244458864806  0.5499999999999482  1.0000
  B   B28       1.0  0.7119180719740698  0.6695240926083791  0.549999999999948  1.0000
  O   O53       1.0  0.6966021266938613  0.6672853366977559  0.5499999999999481  1.0000
  C   C235      1.0  0.7433613387968486  0.6889113102143165  0.549999999999948  1.0000
  C   C236      1.0  0.6846307968487358  0.6480828028903615  0.5499999999999479  1.0000
  C   C237      1.0  0.6674820738849785  0.6382278999938298  0.5499999999999479  1.0000
  C   C238      1.0  0.6583133624664854  0.6191586472000985  0.5499999999999478  1.0000
  O   O54       1.0  0.791541378712158  0.7393652249523635  0.5499999999999482  1.0000
  C   C239      1.0  0.7454134271734374  0.7210753969895709  0.5499999999999481  1.0000
  C   C240      1.0  0.8047753630755605  0.7575342220039176  0.5499999999999482  1.0000
  C   C241      1.0  0.8211950753712691  0.7640615541830806  0.5499999999999482  1.0000
  C   C242      1.0  0.8330305673747396  0.7825312790347982  0.5499999999999483  1.0000
  O   O55       1.0  0.7806601658931063  0.7566321845042958  0.5499999999999482  1.0000
  C   C243      1.0  0.7585365852161355  0.7051891687143321  0.5499999999999481  1.0000
  C   C244      1.0  0.7988957772401692  0.7685828684089223  0.5499999999999482  1.0000
  C   C245      1.0  0.8106484806811034  0.7877614672711694  0.5499999999999483  1.0000
  C   C246      1.0  0.828569889462099  0.7950670768988793  0.5499999999999483  1.0000
  O   O56       1.0  0.7104420080776652  0.6531072623956112  0.5499999999999479  1.0000
  C   C247      1.0  0.7296710345023479  0.7041896627664384  0.5499999999999481  1.0000
  C   C248      1.0  0.6929630925543342  0.6395352984562994  0.5499999999999479  1.0000
  C   C249      1.0  0.684224192571017  0.6206806976737563  0.5499999999999478  1.0000
  C   C250      1.0  0.666503149252381  0.6102053863493554  0.5499999999999478  1.0000
  C   C251      1.0  0.7283908409043528  0.687692456641251  0.549999999999948  1.0000
  C   C252      1.0  0.7602343803429772  0.7218136612408271  0.5499999999999481  1.0000
  H   H105      1.0  0.7430110551350225  0.6764343676942515  0.549999999999948  1.0000
  H   H106      1.0  0.7464801871023975  0.7341038746351268  0.5499999999999483  1.0000
  H   H107      1.0  0.769628111258187  0.7049670696830066  0.5499999999999481  1.0000
  H   H108      1.0  0.7180426987146137  0.7036238647934324  0.5499999999999481  1.0000
  H   H109      1.0  0.6608291727104639  0.6448590533263246  0.5499999999999479  1.0000
  H   H110      1.0  0.8254469546086792  0.7550116644715605  0.5499999999999482  1.0000
  H   H111      1.0  0.8067511253746757  0.7971268684112828  0.5499999999999483  1.0000
  H   H112      1.0  0.6905540506392401  0.6136926502232238  0.5499999999999478  1.0000
  B   B29       1.0  0.8754844598069651  0.8783692052682796  0.5499999999999486  1.0000
  B   B30       1.0  0.9128445966436454  0.9584274731110312  0.5499999999999489  1.0000
  O   O57       1.0  0.9298737543321252  0.9693343314916691  0.5499999999999489  1.0000
  C   C253      1.0  0.8858023425057645  0.927327971535502  0.5499999999999488  1.0000
  C   C254      1.0  0.9339106708391594  0.9876303119518831  0.5499999999999492  1.0000
  C   C255      1.0  0.9490739523286328  0.004283616587890618  0.5499999999999491  1.0000
  C   C256      1.0  0.9494104999535755  0.02069682085867403  0.5499999999999493  1.0000
  O   O58       1.0  0.8584919441933359  0.8664932822682154  0.5499999999999485  1.0000
  C   C257      1.0  0.9018290635473446  0.9095982446074031  0.5499999999999485  1.0000
  C   C258      1.0  0.8556958332780554  0.8484760374830581  0.5499999999999485  1.0000
  C   C259      1.0  0.8413166719714705  0.8306902014463341  0.5499999999999484  1.0000
  C   C260      1.0  0.8429891545062032  0.8152557806343629  0.5499999999999484  1.0000
  O   O59       1.0  0.8834076204422459  0.8693531043025746  0.5499999999999485  1.0000
  C   C261      1.0  0.8767874385165276  0.9081424546116192  0.5499999999999485  1.0000
  C   C262      1.0  0.8709379031139  0.8507555148229116  0.5499999999999485  1.0000
  C   C263      1.0  0.8727161904963658  0.8364745157370509  0.5499999999999484  1.0000
  C   C264      1.0  0.8589187256500931  0.818818850258324  0.5499999999999484  1.0000
  O   O60       1.0  0.9058756845754875  0.968496751184771  0.5499999999999489  1.0000
  C   C265      1.0  0.9106597555971744  0.9283912730219053  0.5499999999999488  1.0000
  C   C266      1.0  0.9193979124585433  0.9870096744066891  0.5499999999999492  1.0000
  C   C267      1.0  0.9194301320026462  0.0026426882488340166  0.5499999999999491  1.0000
  C   C268      1.0  0.934474588659024  0.01959502520025464  0.5499999999999492  1.0000
  C   C269      1.0  0.9030189618813581  0.9379192836678366  0.5499999999999488  1.0000
  C   C270      1.0  0.8846728748233753  0.8988238176835214  0.5499999999999486  1.0000
  H   H113      1.0  0.8794092466632019  0.9344040876294957  0.5499999999999488  1.0000
  H   H114      1.0  0.9085267991239914  0.902963859223083  0.5499999999999486  1.0000
  H   H115      1.0  0.8632455424439849  0.8999727269987959  0.5499999999999486  1.0000
  H   H116      1.0  0.9241011697757434  0.9361366227082683  0.5499999999999488  1.0000
  H   H117      1.0  0.960668823724803  0.005126246340471821  0.5499999999999491  1.0000
  H   H118      1.0  0.8290558674424581  0.8282333724300492  0.5499999999999484  1.0000
  H   H119      1.0  0.8848251894334747  0.8385323139108766  0.5499999999999483  1.0000
  H   H120      1.0  0.9080228167154615  0.0022020967583936154  0.5499999999999491  1.0000
  B   B31       1.0  0.9059779535669482  0.06353896307368712  0.549999999999948  1.0000
  B   B32       1.0  0.8588866957721015  0.08786588229690377  0.549999999999948  1.0000
  O   O61       1.0  0.8642315477393326  0.10584437827448553  0.5499999999999481  1.0000
  C   C271      1.0  0.8654030106743849  0.06313696356971644  0.549999999999948  1.0000
  C   C272      1.0  0.8498934355726947  0.10659464469665474  0.5499999999999481  1.0000
  C   C273      1.0  0.8489801746696771  0.12151702973796095  0.5499999999999481  1.0000
  C   C274      1.0  0.8337490864677498  0.11989973705264506  0.5499999999999481  1.0000
  O   O62       1.0  0.9012032504826346  0.04570623400134507  0.5499999999999479  1.0000
  C   C275      1.0  0.8989949505121627  0.08777781232369945  0.549999999999948  1.0000
  C   C276      1.0  0.916060743009271  0.04573533405235648  0.5499999999999479  1.0000
  C   C277      1.0  0.9179888043754831  0.03139777482990314  0.5499999999999479  1.0000
  C   C278      1.0  0.9337856029878262  0.034244177339917914  0.5499999999999479  1.0000
  O   O63       1.0  0.9230506754993288  0.07497120903990592  0.549999999999948  1.0000
  C   C279      1.0  0.8767169245618867  0.05744460312858322  0.5499999999999481  1.0000
  C   C280      1.0  0.9294276519068978  0.06325247377399162  0.549999999999948  1.0000
  C   C281      1.0  0.9456210488407781  0.06666376406135248  0.549999999999948  1.0000
  C   C282      1.0  0.9478978434274191  0.05164819246367826  0.5499999999999479  1.0000
  O   O64       1.0  0.8417489808262115  0.07694312460772042  0.549999999999948  1.0000
  C   C283      1.0  0.8878086494855146  0.09340586965236014  0.5499999999999481  1.0000
  C   C284      1.0  0.83602222747132  0.08939895661983274  0.549999999999948  1.0000
  C   C285      1.0  0.8201373745039553  0.08711854176645926  0.549999999999948  1.0000
  C   C286      1.0  0.8189555297225436  0.10305805996078637  0.5499999999999481  1.0000
  C   C287      1.0  0.8707046806415758  0.08134024967534698  0.549999999999948  1.0000
  C   C288      1.0  0.8938346914887897  0.06964323941058562  0.549999999999948  1.0000
  H   H121      1.0  0.851989080914335  0.053304805656055616  0.5499999999999479  1.0000
  H   H122      1.0  0.9123207311584568  0.09774933209619902  0.5499999999999481  1.0000
  H   H123      1.0  0.8722004623424573  0.04309999562711608  0.5499999999999479  1.0000
  H   H124      1.0  0.8925173170484569  0.10774611561725299  0.5499999999999481  1.0000
  H   H125      1.0  0.8600742655436006  0.13493591797687166  0.5499999999999482  1.0000
  H   H126      1.0  0.9073752925427359  0.017651658744718392  0.5499999999999478  1.0000
  H   H127      1.0  0.956456572665391  0.08026893367640668  0.549999999999948  1.0000
  H   H128      1.0  0.8088395187681037  0.0738642426637665  0.549999999999948  1.0000
  B   B33       1.0  0.022084891358751316  0.07933564433188273  0.549999999999948  1.0000
  B   B34       1.0  0.09693979556234886  0.12126572120276574  0.5499999999999481  1.0000
  O   O65       1.0  0.10632514257114095  0.11370425759096864  0.5499999999999481  1.0000
  C   C289      1.0  0.06898791796258591  0.11888548958192559  0.5499999999999481  1.0000
  C   C290      1.0  0.1237796621339145  0.12884336501820112  0.5499999999999482  1.0000
  C   C291      1.0  0.13892838961517703  0.12970646092638483  0.5499999999999482  1.0000
  C   C292      1.0  0.15473559817088228  0.14703004848277626  0.5499999999999482  1.0000
  O   O66       1.0  0.012699681235006715  0.08689718431785926  0.549999999999948  1.0000
  C   C293      1.0  0.05003687608192504  0.0817159598690258  0.549999999999948  1.0000
  C   C294      1.0  0.9952451886593434  0.07175806297810755  0.549999999999948  1.0000
  C   C295      1.0  0.9800964427594687  0.0708949796903843  0.549999999999948  1.0000
  C   C296      1.0  0.9642892307826878  0.05357136989225947  0.5499999999999479  1.0000
  O   O67       1.0  0.011876274842475502  0.060663591836180655  0.549999999999948  1.0000
  C   C297      1.0  0.051238983118148396  0.10898381082774547  0.5499999999999481  1.0000
  C   C298      1.0  0.9949328616674616  0.05605939423928531  0.5499999999999481  1.0000
  C   C299      1.0  0.9798842924056904  0.03926929596760741  0.5499999999999479  1.0000
  C   C300      1.0  0.9644475476527046  0.03793352378367884  0.5499999999999479  1.0000
  O   O68       1.0  0.10714854888000021  0.1399378073457779  0.5499999999999482  1.0000
  C   C301      1.0  0.06778580452538145  0.09161756751077031  0.5499999999999482  1.0000
  C   C302      1.0  0.12409198979577203  0.1445420546479695  0.5499999999999482  1.0000
  C   C303      1.0  0.13914054891251998  0.16133212809984662  0.5499999999999483  1.0000
  C   C304      1.0  0.15457729291788286  0.16266791734868738  0.5499999999999483  1.0000
  C   C305      1.0  0.07778463910460404  0.11050233432821986  0.5499999999999481  1.0000
  C   C306      1.0  0.04124037027054757  0.09009919915396605  0.5499999999999482  1.0000
  H   H129      1.0  0.07636776759101531  0.13366508580836328  0.5499999999999482  1.0000
  H   H130      1.0  0.04265706284362608  0.06693635122752485  0.549999999999948  1.0000
  H   H131      1.0  0.04477217584460008  0.116029456273584  0.5499999999999481  1.0000
  H   H132      1.0  0.07425265467259574  0.08457197626162158  0.549999999999948  1.0000
  H   H133      1.0  0.13903934545512714  0.11755308503248402  0.5499999999999481  1.0000
  H   H134      1.0  0.9799854751652037  0.08304833922266282  0.549999999999948  1.0000
  H   H135      1.0  0.9796190255922835  0.026893817541317405  0.5499999999999479  1.0000
  H   H136      1.0  0.13940581599140098  0.17370761022892042  0.5499999999999483  1.0000
  B   B35       1.0  0.857470916863608  0.19621771706562546  0.5499999999999509  1.0000
  B   B36       1.0  0.8969211927320928  0.27511829623173045  0.5499999999999513  1.0000
  O   O69       1.0  0.9138775249167094  0.28544292002183075  0.5499999999999512  1.0000
  C   C307      1.0  0.8697037020980998  0.24502273721639062  0.5499999999999512  1.0000
  C   C308      1.0  0.9182495970493798  0.30356467632403294  0.5499999999999512  1.0000
  C   C309      1.0  0.9335218442814067  0.31946880991528387  0.5499999999999513  1.0000
  C   C310      1.0  0.9345261960155147  0.33591850503618725  0.5499999999999513  1.0000
  O   O70       1.0  0.8405146577707202  0.185893237700922  0.5499999999999509  1.0000
  C   C311      1.0  0.8846884420443434  0.2263133876080692  0.549999999999951  1.0000
  C   C312      1.0  0.8361426272795998  0.1677715105817148  0.549999999999951  1.0000
  C   C313      1.0  0.8208703490001693  0.15186735737264564  0.5499999999999505  1.0000
  C   C314      1.0  0.8198660141615925  0.13541765886248433  0.5499999999999506  1.0000
  O   O71       1.0  0.864102737517889  0.18589324239814634  0.5499999999999509  1.0000
  C   C315      1.0  0.8603490533011527  0.22631337354525746  0.549999999999951  1.0000
  C   C316      1.0  0.8503530488023945  0.16777154508189632  0.549999999999951  1.0000
  C   C317      1.0  0.8497212410609852  0.15186740263286133  0.5499999999999505  1.0000
  C   C318      1.0  0.834275807672719  0.13541759469933096  0.5499999999999506  1.0000
  O   O72       1.0  0.8902894849281675  0.2854429166950118  0.5499999999999512  1.0000
  C   C319      1.0  0.8940431509328423  0.2450227478481992  0.5499999999999512  1.0000
  C   C320      1.0  0.9040391570728905  0.30356464246754694  0.5499999999999512  1.0000
  C   C321      1.0  0.9046709772376518  0.31946877470236207  0.5499999999999513  1.0000
  C   C322      1.0  0.920116394413505  0.3359185818405658  0.5499999999999513  1.0000
  C   C323      1.0  0.8868264593227566  0.25492882310165044  0.5499999999999511  1.0000
  C   C324      1.0  0.8675658325159284  0.21640753049693456  0.549999999999951  1.0000
  H   H137      1.0  0.8635994347056242  0.2523205841789066  0.5499999999999511  1.0000
  H   H138      1.0  0.890792759399123  0.21901558066375085  0.549999999999951  1.0000
  H   H139      1.0  0.8469469345556022  0.21901555790779034  0.549999999999951  1.0000
  H   H140      1.0  0.9074452638223588  0.2523206071591633  0.5499999999999511  1.0000
  H   H141      1.0  0.9448120406231082  0.31966691595522195  0.5499999999999513  1.0000
  H   H142      1.0  0.8095801552314257  0.1516692392205787  0.5499999999999505  1.0000
  H   H143      1.0  0.8608132800169552  0.1516692781371967  0.5499999999999505  1.0000
  H   H144      1.0  0.8935789352880826  0.3196668997013067  0.5499999999999513  1.0000
  B   B37       1.0  0.00617606646189427  0.3936291902611192  0.5499999999999492  1.0000
  B   B38       1.0  0.07820896385962867  0.43870518192840424  0.5499999999999492  1.0000
  O   O73       1.0  0.08825830693192123  0.4322109546758747  0.5499999999999492  1.0000
  C   C325      1.0  0.05019857143338556  0.43426144978942094  0.5499999999999492  1.0000
  C   C326      1.0  0.10454948236368758  0.44771172206552695  0.5499999999999494  1.0000
  C   C327      1.0  0.11942694860138488  0.44917663979827327  0.5499999999999494  1.0000
  C   C328      1.0  0.13404355357971584  0.4663333866360412  0.5499999999999493  1.0000
  O   O74       1.0  0.9966243960140756  0.40070964806571396  0.5499999999999491  1.0000
  C   C329      1.0  0.0341002387999872  0.39757633158873956  0.5499999999999491  1.0000
  C   C330      1.0  0.9802265075503525  0.38578258406506477  0.5499999999999492  1.0000
  C   C331      1.0  0.9659545438203301  0.3854094357039221  0.5499999999999492  1.0000
  C   C332      1.0  0.9508955344489192  0.3688903648386123  0.5499999999999488  1.0000
  O   O75       1.0  0.9968668404385779  0.3751012731515022  0.5499999999999488  1.0000
  C   C333      1.0  0.03321619744110233  0.42361122792932426  0.5499999999999493  1.0000
  C   C334      1.0  0.9801521001059426  0.3702232411589451  0.5499999999999488  1.0000
  C   C335      1.0  0.9653543701449107  0.3535566652187592  0.5499999999999489  1.0000
  C   C336      1.0  0.9503363115365162  0.3528324953729975  0.5499999999999489  1.0000
  O   O76       1.0  0.08700628818698142  0.4571930249545189  0.5499999999999494  1.0000
  C   C337      1.0  0.05127836549412788  0.40834921677086766  0.5499999999999491  1.0000
  C   C338      1.0  0.10379424200173863  0.4627613495835222  0.5499999999999493  1.0000
  C   C339      1.0  0.11794847669760226  0.4797661886795251  0.5499999999999493  1.0000
  C   C340      1.0  0.13336129792076462  0.4816472476268992  0.5499999999999493  1.0000
  C   C341      1.0  0.05978098556128752  0.42701426688469024  0.5499999999999493  1.0000
  C   C342      1.0  0.024613681285596437  0.4049689847108776  0.5499999999999491  1.0000
  H   H145      1.0  0.05637390721866558  0.4488146892876361  0.5499999999999494  1.0000
  H   H146      1.0  0.027707450055619653  0.38294407470269687  0.5499999999999492  1.0000
  H   H147      1.0  0.026282640299738102  0.42994864703889296  0.5499999999999492  1.0000
  H   H148      1.0  0.05842646594416319  0.40220336000727064  0.5499999999999491  1.0000
  H   H149      1.0  0.1201803452157458  0.43742535837459984  0.5499999999999492  1.0000
  H   H150      1.0  0.966011535022138  0.39766302281081456  0.5499999999999491  1.0000
  H   H151      1.0  0.9649351943644452  0.34109304593891976  0.5499999999999489  1.0000
  H   H152      1.0  0.1175567340282152  0.4917471968812194  0.5499999999999495  1.0000
  B   B39       1.0  0.18416012594394968  0.5607858610501015  0.5499999999999485  1.0000
  B   B40       1.0  0.22367487816525145  0.6398153998945222  0.5499999999999488  1.0000
  O   O77       1.0  0.24061173099433522  0.6496058316505204  0.5499999999999488  1.0000
  C   C343      1.0  0.1960796371100229  0.609777583398852  0.5499999999999486  1.0000
  C   C344      1.0  0.24563766802233217  0.6678556710761077  0.5499999999999489  1.0000
  C   C345      1.0  0.26123310156331914  0.6831049672997712  0.5499999999999489  1.0000
  C   C346      1.0  0.263325492180773  0.7000382857237065  0.5499999999999492  1.0000
  O   O78       1.0  0.1671826768807826  0.5498934394050036  0.5499999999999484  1.0000
  C   C347      1.0  0.21104853434083548  0.591037654505341  0.5499999999999486  1.0000
  C   C348      1.0  0.16343671272303265  0.5318405589416944  0.5499999999999484  1.0000
  C   C349      1.0  0.14849712965973572  0.5152295775492233  0.5499999999999483  1.0000
  C   C350      1.0  0.14853893323617057  0.49920973153264897  0.5499999999999483  1.0000
  O   O79       1.0  0.1913066571915281  0.550995580692464  0.5499999999999484  1.0000
  C   C351      1.0  0.18660276590003877  0.5908237742549773  0.5499999999999484  1.0000
  C   C352      1.0  0.17808274737844107  0.5327457986107612  0.5499999999999484  1.0000
  C   C353      1.0  0.1784289665077396  0.5174965001495877  0.5499999999999482  1.0000
  C   C354      1.0  0.16358795424884068  0.5005630681034176  0.5499999999999483  1.0000
  O   O80       1.0  0.21758992566185703  0.6507079626994439  0.5499999999999488  1.0000
  C   C355      1.0  0.22031159990190333  0.6095637284698552  0.5499999999999486  1.0000
  C   C356      1.0  0.2318968181359587  0.6687608435958066  0.5499999999999489  1.0000
  C   C357      1.0  0.2335681623083898  0.6853718074928146  0.5499999999999488  1.0000
  C   C358      1.0  0.24962987235509512  0.7013917646527849  0.5499999999999492  1.0000
  C   C359      1.0  0.21323527447070428  0.6195929277356516  0.5499999999999485  1.0000
  C   C360      1.0  0.19394316512399656  0.5810086739184525  0.5499999999999485  1.0000
  H   H153      1.0  0.19015319485312437  0.6173233186437488  0.5499999999999486  1.0000
  H   H154      1.0  0.21731614357961165  0.5839638798035702  0.5499999999999485  1.0000
  H   H155      1.0  0.17313058399086872  0.583278070372379  0.5499999999999485  1.0000
  H   H156      1.0  0.23365297263378168  0.6166375552791643  0.5499999999999486  1.0000
  H   H157      1.0  0.27207006033006537  0.6824193430985076  0.5499999999999489  1.0000
  H   H158      1.0  0.13679453797071697  0.5141470818002668  0.5499999999999483  1.0000
  H   H159      1.0  0.1899514974409841  0.5181821026745614  0.5499999999999482  1.0000
  H   H160      1.0  0.22294809891883546  0.6864543073814237  0.5499999999999488  1.0000
  B   B41       1.0  0.18726905281021292  0.4521908112901209  0.5499999999999482  1.0000
  B   B42       1.0  0.2292629862324761  0.42361240865373123  0.5499999999999481  1.0000
  O   O81       1.0  0.2238496788755804  0.40566532325136356  0.549999999999948  1.0000
  C   C361      1.0  0.2246338988590653  0.4488617947441078  0.5499999999999482  1.0000
  C   C362      1.0  0.23856527949901238  0.40553657600799065  0.549999999999948  1.0000
  C   C363      1.0  0.24097964381469492  0.3914755946645162  0.549999999999948  1.0000
  C   C364      1.0  0.2573300917024764  0.39549422895812936  0.549999999999948  1.0000
  O   O82       1.0  0.19368768920829268  0.47034182168040756  0.5499999999999482  1.0000
  C   C365      1.0  0.19106284232604143  0.42609816504776593  0.5499999999999481  1.0000
  C   C366      1.0  0.17993438389205832  0.4718672237021924  0.5499999999999482  1.0000
  C   C367      1.0  0.1794002269986279  0.4869810257770479  0.5499999999999483  1.0000
  C   C368      1.0  0.16409917652266254  0.4851561578848883  0.5499999999999483  1.0000
  O   O83       1.0  0.1702972679226615  0.4420675126297304  0.5499999999999481  1.0000
  C   C369      1.0  0.2147881074462632  0.45557388576443186  0.5499999999999482  1.0000
  C   C370      1.0  0.1657475059797395  0.454908629890372  0.5499999999999482  1.0000
  C   C371      1.0  0.15043848804184404  0.45267960053240763  0.5499999999999482  1.0000
  C   C372      1.0  0.14955753681671477  0.46808815899870765  0.5499999999999482  1.0000
  O   O84       1.0  0.24614449799436114  0.4346799557310478  0.5499999999999481  1.0000
  C   C373      1.0  0.20112050633736162  0.41924154926921503  0.5499999999999481  1.0000
  C   C374      1.0  0.2518499000913991  0.42310030774556134  0.5499999999999481  1.0000
  C   C375      1.0  0.26767489346963175  0.42728396368800964  0.5499999999999481  1.0000
  C   C376      1.0  0.2705134390539192  0.41345566703874626  0.5499999999999482  1.0000
  C   C377      1.0  0.21821796812034003  0.4305494191711374  0.5499999999999481  1.0000
  C   C378      1.0  0.1977255963801909  0.4445148660599937  0.5499999999999481  1.0000
  H   H161      1.0  0.2379077124194036  0.45819611970800966  0.5499999999999482  1.0000
  H   H162      1.0  0.17764936031395615  0.4170413580384054  0.5499999999999481  1.0000
  H   H163      1.0  0.22053084492857558  0.47003984812121385  0.5499999999999482  1.0000
  H   H164      1.0  0.19570598465771277  0.4047346248552222  0.549999999999948  1.0000
  H   H165      1.0  0.23074232858895574  0.3775236963216536  0.5499999999999481  1.0000
  H   H166      1.0  0.19053801687254107  0.5003660384631017  0.5499999999999483  1.0000
  H   H167      1.0  0.13910462044186112  0.43945670509930157  0.5499999999999481  1.0000
  H   H168      1.0  0.2781412958953653  0.44111518073429457  0.5499999999999481  1.0000
  B   B43       1.0  0.2398045626802425  0.7618961618343523  0.5499999999999485  1.0000
  B   B44       1.0  0.2128476320674061  0.8069721297120575  0.5499999999999488  1.0000
  O   O85       1.0  0.22206622916975197  0.8255000889598969  0.5499999999999488  1.0000
  C   C379      1.0  0.20990566747928904  0.7769901246699066  0.5499999999999486  1.0000
  C   C380      1.0  0.2102295366313212  0.83037819062599  0.5499999999999488  1.0000
  C   C381      1.0  0.21209829595105795  0.847044669990974  0.5499999999999489  1.0000
  C   C382      1.0  0.19780448918852897  0.8477688172433435  0.5499999999999489  1.0000
  O   O86       1.0  0.23011399545184413  0.7434083991575491  0.5499999999999485  1.0000
  C   C383      1.0  0.24322984251690533  0.7922521532330062  0.5499999999999486  1.0000
  C   C384      1.0  0.24133365143099247  0.7378400986747512  0.5499999999999485  1.0000
  C   C385      1.0  0.2384831032903498  0.7208352942194002  0.5499999999999484  1.0000
  C   C386      1.0  0.2520148299258483  0.7189542992625105  0.5499999999999484  1.0000
  O   O87       1.0  0.2563481252234427  0.7683905153047886  0.5499999999999484  1.0000
  C   C387      1.0  0.21623789210456254  0.766339972443382  0.5499999999999484  1.0000
  C   C388      1.0  0.25713847570201886  0.7528897459979521  0.5499999999999485  1.0000
  C   C389      1.0  0.2705511192901413  0.7514249110363597  0.5499999999999485  1.0000
  C   C390      1.0  0.26801097772438415  0.7342680636884452  0.5499999999999485  1.0000
  O   O88       1.0  0.19621545530900694  0.7998917526492842  0.5499999999999485  1.0000
  C   C391      1.0  0.23682466537443736  0.8030251004031006  0.5499999999999485  1.0000
  C   C392      1.0  0.1947446061802709  0.8148187903379582  0.5499999999999488  1.0000
  C   C393      1.0  0.18084575149682997  0.8151918794361774  0.5499999999999488  1.0000
  C   C394      1.0  0.18230577112355228  0.8317110049719727  0.5499999999999486  1.0000
  C   C395      1.0  0.2199453259071196  0.7956325197889541  0.5499999999999486  1.0000
  C   C396      1.0  0.23306739249025127  0.7735872803977943  0.5499999999999486  1.0000
  H   H169      1.0  0.19663470286975196  0.7706527452654348  0.5499999999999486  1.0000
  H   H170      1.0  0.25652382353935815  0.7983980800405608  0.5499999999999485  1.0000
  H   H171      1.0  0.20785995541334445  0.7517867294595492  0.5499999999999485  1.0000
  H   H172      1.0  0.24506407398835406  0.8176573471069258  0.5499999999999488  1.0000
  H   H173      1.0  0.22414279224630332  0.8595083257668472  0.5499999999999489  1.0000
  H   H174      1.0  0.22611031663062556  0.7088542578616652  0.5499999999999484  1.0000
  H   H175      1.0  0.2830557565663206  0.7631761371322955  0.5499999999999485  1.0000
  H   H176      1.0  0.1686491855437484  0.8029383297262045  0.5499999999999485  1.0000
  B   B45       1.0  0.22210354340908228  0.9254829679593995  0.5499999999999469  1.0000
  B   B46       1.0  0.2615538192775394  0.004383547125503876  0.5499999999999471  1.0000
  O   O89       1.0  0.27851015146766817  0.014708171060867255  0.549999999999947  1.0000
  C   C397      1.0  0.23433632873648014  0.974287988081988  0.5499999999999469  1.0000
  C   C398      1.0  0.28288222343202896  0.03282992733717799  0.5499999999999474  1.0000
  C   C399      1.0  0.2981544705781544  0.0487340611081793  0.5499999999999473  1.0000
  C   C400      1.0  0.299158822031483  0.06518375610868483  0.5499999999999475  1.0000
  O   O90       1.0  0.20514728432170803  0.9151584887399462  0.5499999999999469  1.0000
  C   C401      1.0  0.24932106868273793  0.9555786384736815  0.549999999999947  1.0000
  C   C402      1.0  0.20077525366229237  0.8970367615948535  0.5499999999999468  1.0000
  C   C403      1.0  0.18550297529696627  0.8811326085655296  0.5499999999999468  1.0000
  C   C404      1.0  0.18449864017762127  0.8646829099349778  0.5499999999999466  1.0000
  O   O91       1.0  0.2287353639236265  0.9151584931466696  0.5499999999999469  1.0000
  C   C405      1.0  0.22498167996770888  0.955578624467193  0.549999999999947  1.0000
  C   C406      1.0  0.21498567506572286  0.8970367958563054  0.5499999999999468  1.0000
  C   C407      1.0  0.21435386705867196  0.8811326532275238  0.5499999999999468  1.0000
  C   C408      1.0  0.1989084335100267  0.864682845414384  0.5499999999999466  1.0000
  O   O92       1.0  0.25492211133386344  0.014708167443522163  0.549999999999947  1.0000
  C   C409      1.0  0.25867577759939914  0.9742879987701498  0.5499999999999469  1.0000
  C   C410      1.0  0.2686717833361685  0.03282989324194847  0.5499999999999474  1.0000
  C   C411      1.0  0.26930360323527724  0.04873402529701193  0.5499999999999473  1.0000
  C   C412      1.0  0.2847490202507469  0.06518383255561316  0.5499999999999475  1.0000
  C   C413      1.0  0.2514590859545692  0.984194073995424  0.5499999999999469  1.0000
  C   C414      1.0  0.23219845914775566  0.9456727813907082  0.5499999999999468  1.0000
  H   H177      1.0  0.22823206129908938  0.981585834982335  0.5499999999999469  1.0000
  H   H178      1.0  0.2554253859926138  0.948280831467206  0.5499999999999468  1.0000
  H   H179      1.0  0.21157956123941185  0.948280808891883  0.5499999999999468  1.0000
  H   H180      1.0  0.27207789050616954  0.9815858581432824  0.5499999999999469  1.0000
  H   H181      1.0  0.30944466703409046  0.04893216738143031  0.5499999999999473  1.0000
  H   H182      1.0  0.17421278164245227  0.8809344906467661  0.5499999999999468  1.0000
  H   H183      1.0  0.22544590589556893  0.880934528498557  0.5499999999999468  1.0000
  H   H184      1.0  0.2582115611666296  0.04893215006264413  0.5499999999999473  1.0000
  B   B47       1.0  0.26013821724837327  0.11273546201507548  0.5499999999999483  1.0000
  B   B48       1.0  0.21304696348060584  0.13706238554088665  0.5499999999999484  1.0000
  O   O93       1.0  0.21782158046256556  0.15489515994913264  0.5499999999999484  1.0000
  C   C415      1.0  0.22002988083465716  0.11282354448042917  0.5499999999999483  1.0000
  C   C416      1.0  0.20296409599994814  0.15486610246250845  0.5499999999999484  1.0000
  C   C417      1.0  0.20103602506346988  0.1692036289332532  0.5499999999999485  1.0000
  C   C418      1.0  0.18523924578920545  0.16635724723219922  0.5499999999999485  1.0000
  O   O94       1.0  0.2547932819934847  0.09475701544366905  0.5499999999999483  1.0000
  C   C419      1.0  0.25362182052719096  0.13746439282945788  0.5499999999999484  1.0000
  C   C420      1.0  0.26913140403275554  0.09400679219468182  0.5499999999999483  1.0000
  C   C421      1.0  0.27004465361655  0.07908437406968447  0.5499999999999482  1.0000
  C   C422      1.0  0.2852757616863773  0.08070168663211258  0.5499999999999482  1.0000
  O   O95       1.0  0.27727588602065295  0.12365831706433228  0.5499999999999482  1.0000
  C   C423      1.0  0.23121624004453262  0.10719556287715397  0.5499999999999483  1.0000
  C   C424      1.0  0.2830025933728898  0.11120245785717534  0.5499999999999483  1.0000
  C   C425      1.0  0.29888746909138947  0.11348288965305908  0.5499999999999483  1.0000
  C   C426      1.0  0.3000692978604291  0.0975433523483872  0.5499999999999483  1.0000
  O   O96       1.0  0.19597419126667887  0.125630233583234  0.5499999999999484  1.0000
  C   C427      1.0  0.24230796553117287  0.1431568296227424  0.5499999999999484  1.0000
  C   C428      1.0  0.18959716906039467  0.13734893981537585  0.5499999999999484  1.0000
  C   C429      1.0  0.1734037945908759  0.1339376674106847  0.5499999999999484  1.0000
  C   C430      1.0  0.17112698476016272  0.14895321934646039  0.5499999999999484  1.0000
  C   C431      1.0  0.22519003232607784  0.13095822743294502  0.5499999999999484  1.0000
  C   C432      1.0  0.2483200449290164  0.11926121965563426  0.5499999999999483  1.0000
  H   H185      1.0  0.2067041035663899  0.10285207396805125  0.5499999999999483  1.0000
  H   H186      1.0  0.26703575371337596  0.14729660026400862  0.5499999999999484  1.0000
  H   H187      1.0  0.22650752089229495  0.09285529574869347  0.5499999999999483  1.0000
  H   H188      1.0  0.24682437593030085  0.15750141575230317  0.5499999999999483  1.0000
  H   H189      1.0  0.21164955132575544  0.18294975164278793  0.5499999999999485  1.0000
  H   H190      1.0  0.25895057683709366  0.06566549168936225  0.5499999999999482  1.0000
  H   H191      1.0  0.3101853214191853  0.1267371850144841  0.5499999999999484  1.0000
  H   H192      1.0  0.16256826748728698  0.1203324939331664  0.5499999999999483  1.0000
  B   B49       1.0  0.2061801411501301  0.24217378770812018  0.5499999999999495  1.0000
  B   B50       1.0  0.24354028418496917  0.32223205457002213  0.5499999999999496  1.0000
  O   O97       1.0  0.26053286484746796  0.3341081231620125  0.5499999999999496  1.0000
  C   C433      1.0  0.2171957077426128  0.29100312836624326  0.5499999999999495  1.0000
  C   C434      1.0  0.26332901686934246  0.35212540146097543  0.5499999999999498  1.0000
  C   C435      1.0  0.2777081470233237  0.3699112132758949  0.5499999999999498  1.0000
  C   C436      1.0  0.2760356835671325  0.38534563441746683  0.5499999999999499  1.0000
  O   O98       1.0  0.1891510547409553  0.23126707613483646  0.5499999999999493  1.0000
  C   C437      1.0  0.23322242809303512  0.2732734010244331  0.5499999999999496  1.0000
  C   C438      1.0  0.1851141797984853  0.21297112638407445  0.5499999999999493  1.0000
  C   C439      1.0  0.16995086696411613  0.1963178006843962  0.5499999999999492  1.0000
  C   C440      1.0  0.16961433672144052  0.17990459394771663  0.5499999999999492  1.0000
  O   O99       1.0  0.21314916482613916  0.2321046590312875  0.5499999999999493  1.0000
  C   C441      1.0  0.20836507690042977  0.2722100996581981  0.5499999999999496  1.0000
  C   C442      1.0  0.19962691915132805  0.2135917634196854  0.5499999999999493  1.0000
  C   C443      1.0  0.19959471236029255  0.19795873986583867  0.5499999999999494  1.0000
  C   C444      1.0  0.18455023879756619  0.18100640107686414  0.5499999999999492  1.0000
  O   O100      1.0  0.2356172306953605  0.33124830778936026  0.5499999999999496  1.0000
  C   C445      1.0  0.2422373941277151  0.29245891724748113  0.5499999999999495  1.0000
  C   C446      1.0  0.24808692691311907  0.3498459211544468  0.5499999999999498  1.0000
  C   C447      1.0  0.2463086539980719  0.36412691282258924  0.5499999999999498  1.0000
  C   C448      1.0  0.26010610092475617  0.38178257383461445  0.5499999999999499  1.0000
  C   C449      1.0  0.2343520369267275  0.3017777884929648  0.5499999999999495  1.0000
  C   C450      1.0  0.21600595370859416  0.2626823231797745  0.5499999999999494  1.0000
  H   H193      1.0  0.21049802164537496  0.2976375556044505  0.5499999999999495  1.0000
  H   H194      1.0  0.23961557388541607  0.2661973271496114  0.5499999999999494  1.0000
  H   H195      1.0  0.19492365532719955  0.2644647928917497  0.5499999999999494  1.0000
  H   H196      1.0  0.25577928252786536  0.30062868790639374  0.5499999999999495  1.0000
  H   H197      1.0  0.2899689559832819  0.3723680309737321  0.5499999999999498  1.0000
  H   H198      1.0  0.158355998620872  0.1954751589602461  0.5499999999999492  1.0000
  H   H199      1.0  0.21100202443136937  0.19839933143079794  0.5499999999999494  1.0000
  H   H200      1.0  0.23419965161475653  0.36206911423057964  0.5499999999999498  1.0000
  B   B51       1.0  0.3417561363535636  0.46135696839015244  0.549999999999951  1.0000
  B   B52       1.0  0.40710676873713614  0.5310773346465809  0.5499999999999512  1.0000
  O   O101      1.0  0.42242271401734494  0.5333160905572047  0.5499999999999511  1.0000
  C   C451      1.0  0.3756635019143567  0.5116901170406427  0.549999999999951  1.0000
  C   C452      1.0  0.4343940438624708  0.5525186243645993  0.5499999999999511  1.0000
  C   C453      1.0  0.4515427668262284  0.5623735272611308  0.5499999999999513  1.0000
  C   C454      1.0  0.4607114782447223  0.5814427800548623  0.5499999999999512  1.0000
  O   O102      1.0  0.32748346199904593  0.4612362023025948  0.549999999999951  1.0000
  C   C455      1.0  0.3736114135377675  0.4795260302653881  0.5499999999999509  1.0000
  C   C456      1.0  0.3142494776356429  0.4430672052510406  0.5499999999999505  1.0000
  C   C457      1.0  0.2978297653399343  0.4365398730718784  0.5499999999999505  1.0000
  C   C458      1.0  0.2859942733364626  0.41807014822016086  0.5499999999999506  1.0000
  O   O103      1.0  0.3383646748180971  0.4439692427506621  0.5499999999999505  1.0000
  C   C459      1.0  0.3604882554950695  0.495412258540627  0.5499999999999511  1.0000
  C   C460      1.0  0.3201290634710335  0.4320185588460354  0.5499999999999506  1.0000
  C   C461      1.0  0.3083763600300979  0.4128399599837877  0.5499999999999506  1.0000
  C   C462      1.0  0.2904549512491019  0.4055343503560783  0.5499999999999504  1.0000
  O   O104      1.0  0.40858283263354134  0.5474941648593494  0.5499999999999511  1.0000
  C   C463      1.0  0.3893538062088577  0.4964117644885212  0.5499999999999511  1.0000
  C   C464      1.0  0.42606174815687287  0.5610661287986615  0.5499999999999513  1.0000
  C   C465      1.0  0.43480064814019104  0.5799207295812054  0.5499999999999512  1.0000
  C   C466      1.0  0.4525216914588276  0.5903960409056064  0.5499999999999512  1.0000
  C   C467      1.0  0.3906339998068525  0.5129089706137085  0.549999999999951  1.0000
  C   C468      1.0  0.3587904603682277  0.47878776601413175  0.5499999999999509  1.0000
  H   H201      1.0  0.37601378557618303  0.5241670595607082  0.5499999999999512  1.0000
  H   H202      1.0  0.37254465360880706  0.46649755261983206  0.5499999999999509  1.0000
  H   H203      1.0  0.3493967294530179  0.49563435757195223  0.5499999999999511  1.0000
  H   H204      1.0  0.40098214199659193  0.49697756246152747  0.5499999999999511  1.0000
  H   H205      1.0  0.45819566800074235  0.5557423739286352  0.5499999999999513  1.0000
  H   H206      1.0  0.2935778861025249  0.44558976278339923  0.5499999999999505  1.0000
  H   H207      1.0  0.31227371533652515  0.4034745588436739  0.5499999999999504  1.0000
  H   H208      1.0  0.4284707900719683  0.5869087770317384  0.5499999999999512  1.0000
  B   B53       1.0  0.5897865895288142  0.6003007070229154  0.549999999999947  1.0000
  B   B54       1.0  0.5292383613066478  0.6003006902105547  0.549999999999947  1.0000
  O   O105      1.0  0.5289997883016937  0.6156697546703246  0.549999999999947  1.0000
  C   C469      1.0  0.5444043428241077  0.5844420539616999  0.5499999999999468  1.0000
  C   C470      1.0  0.5120381254427535  0.6095596616923102  0.549999999999947  1.0000
  C   C471      1.0  0.5046028596792027  0.6190987604713675  0.5499999999999469  1.0000
  C   C472      1.0  0.48727478258346046  0.6096895629968792  0.549999999999947  1.0000
  O   O106      1.0  0.5900250521194185  0.5849316436211731  0.5499999999999468  1.0000
  C   C473      1.0  0.574620508692855  0.616159315763098  0.5499999999999469  1.0000
  C   C474      1.0  0.6069867101267807  0.5910417716462961  0.549999999999947  1.0000
  C   C475      1.0  0.6144219768543712  0.581502644961807  0.5499999999999469  1.0000
  C   C476      1.0  0.6317500686123344  0.5909118663741321  0.549999999999947  1.0000
  O   O107      1.0  0.6053941370817459  0.6156698203631035  0.549999999999947  1.0000
  C   C477      1.0  0.5587619098106266  0.5844420967543147  0.5499999999999468  1.0000
  C   C478      1.0  0.6162456392660897  0.6095596826539733  0.549999999999947  1.0000
  C   C479      1.0  0.6332200645371139  0.6190988894006917  0.5499999999999469  1.0000
  C   C480      1.0  0.6411390087287178  0.6096896479798507  0.549999999999947  1.0000
  O   O108      1.0  0.5136307279694049  0.58493162884589  0.5499999999999468  1.0000
  C   C481      1.0  0.5602629845671611  0.6161593535127032  0.5499999999999469  1.0000
  C   C482      1.0  0.502779183759254  0.5910417262177844  0.549999999999947  1.0000
  C   C483      1.0  0.4858047777722013  0.5815025420863701  0.5499999999999469  1.0000
  C   C484      1.0  0.4778858236505359  0.5909117626112012  0.549999999999947  1.0000
  C   C485      1.0  0.5447317432822698  0.6003006941159569  0.549999999999947  1.0000
  C   C486      1.0  0.5742929543415898  0.6003007189879047  0.549999999999947  1.0000
  H   H209      1.0  0.5324491770498627  0.5717324423368034  0.5499999999999469  1.0000
  H   H210      1.0  0.5865756633122341  0.6288689664026994  0.5499999999999471  1.0000
  H   H211      1.0  0.5580074266448  0.5717324587965322  0.5499999999999469  1.0000
  H   H212      1.0  0.5610174161177229  0.628868955365353  0.5499999999999471  1.0000
  H   H213      1.0  0.511742553847102  0.6336822017391337  0.5499999999999471  1.0000
  H   H214      1.0  0.6072822974230299  0.5669192149355659  0.5499999999999469  1.0000
  H   H215      1.0  0.6406637983282985  0.6336822757809745  0.5499999999999471  1.0000
  H   H216      1.0  0.47836104165778737  0.5669191514739841  0.5499999999999469  1.0000
