data_image0
_chemical_formula_structural       C108B2OC3OC3OC3OC5H8B2OC3OC3OC3OC5H8B2OC3OC3OC3OC5H8B2OC3OC3OC3OC5H8B2OC3OC3OC3OC5H8B2OC3OC3OC3OC5H8B2OC3OC3OC3OC5H8B2OC3OC3OC3OC5H8B2OC3OC3OC3OC5H8B2OC3OC3OC3OC5H8B2OC3OC3OC3OC5H8B2OC3OC3OC3OC5H8B2OC3OC3OC3OC5H8B2OC3OC3OC3OC5H8B2OC3OC3OC3OC5H8B2OC3OC3OC3OC5H8B2OC3OC3OC3OC5H8B2OC3OC3OC3OC5H8B2OC3OC3OC3OC5H8B2OC3OC3OC3OC5H8B2OC3OC3OC3OC5H8B2OC3OC3OC3OC5H8B2OC3OC3OC3OC5H8B2OC3OC3OC3OC5H8B2OC3OC3OC3OC5H8B2OC3OC3OC3OC5H8B2OC3OC3OC3OC5H8
_chemical_formula_sum              "C486 B54 O108 H216"
_cell_length_a       98.5324437735741
_cell_length_b       90.24640330730608
_cell_length_c       30.000000000020815
_cell_angle_alpha    90.00000000000006
_cell_angle_beta     90.0
_cell_angle_gamma    123.08672598434603

_space_group_name_H-M_alt    "P 1"
_space_group_IT_number       1

loop_
  _space_group_symop_operation_xyz
  'x, y, z'

loop_
  _atom_site_type_symbol
  _atom_site_label
  _atom_site_symmetry_multiplicity
  _atom_site_fract_x
  _atom_site_fract_y
  _atom_site_fract_z
  _atom_site_occupancy
  C   C1        1.0  0.4905913595791176  0.8141791966964562  0.5499999999999481  1.0000
  C   C2        1.0  0.47951551625901456  0.8190522073041119  0.5499999999999481  1.0000
  C   C3        1.0  0.4628740064882879  0.8055639901639012  0.549999999999948  1.0000
  C   C4        1.0  0.48560947897130813  0.7963791042883692  0.549999999999948  1.0000
  C   C5        1.0  0.469400962958321  0.782913317073278  0.549999999999948  1.0000
  C   C6        1.0  0.45782212766719804  0.7875140739714759  0.549999999999948  1.0000
  C   C7        1.0  0.608277084075406  0.053163554123741484  0.5499999999999495  1.0000
  C   C8        1.0  0.5925963762404816  0.03847303302123929  0.5499999999999495  1.0000
  C   C9        1.0  0.5902724227933407  0.021597026957295946  0.5499999999999496  1.0000
  C   C10       1.0  0.6216255929908745  0.051548114310673354  0.5499999999999495  1.0000
  C   C11       1.0  0.6196973570624262  0.03519323970047713  0.5499999999999495  1.0000
  C   C12       1.0  0.6038082025650217  0.019958820017419266  0.5499999999999496  1.0000
  C   C13       1.0  0.5285946541042073  0.17912342366331768  0.5499999999999474  1.0000
  C   C14       1.0  0.5156947575572021  0.18118503225073543  0.5499999999999474  1.0000
  C   C15       1.0  0.4998674127816894  0.16584709192489844  0.5499999999999475  1.0000
  C   C16       1.0  0.5262074038963692  0.1623398614598886  0.5499999999999475  1.0000
  C   C17       1.0  0.5108479877038109  0.147109962924993  0.5499999999999473  1.0000
  C   C18       1.0  0.49744657297031875  0.14882795709477128  0.5499999999999473  1.0000
  C   C19       1.0  0.6496566578475943  0.4173104316487932  0.5499999999999471  1.0000
  C   C20       1.0  0.6332556477070606  0.4044977379440676  0.5499999999999469  1.0000
  C   C21       1.0  0.6283140501471784  0.38658403587438034  0.549999999999947  1.0000
  C   C22       1.0  0.6612061425269649  0.41283218418905065  0.5499999999999471  1.0000
  C   C23       1.0  0.6567041321413332  0.3954056904841251  0.549999999999947  1.0000
  C   C24       1.0  0.6400255488577159  0.3820428486955138  0.549999999999947  1.0000
  C   C25       1.0  0.8689820344062243  0.4985770338604808  0.5499999999999495  1.0000
  C   C26       1.0  0.8560640231226813  0.5006077556401901  0.5499999999999495  1.0000
  C   C27       1.0  0.8402476819988484  0.4852517507100901  0.5499999999999496  1.0000
  C   C28       1.0  0.8666233550098563  0.4818068077578236  0.5499999999999494  1.0000
  C   C29       1.0  0.8512752595486245  0.46655976207962574  0.5499999999999494  1.0000
  C   C30       1.0  0.8378558139252029  0.4682461389824886  0.5499999999999494  1.0000
  C   C31       1.0  0.9851173084145047  0.7187947100660147  0.5499999999999485  1.0000
  C   C32       1.0  0.9850161909782208  0.7340416873615085  0.5499999999999484  1.0000
  C   C33       1.0  0.9699104356538141  0.7323552829548491  0.5499999999999484  1.0000
  C   C34       1.0  0.9707057944325262  0.7020244553141177  0.5499999999999485  1.0000
  C   C35       1.0  0.9557570038467398  0.6999936563460416  0.5499999999999485  1.0000
  C   C36       1.0  0.9552966312256258  0.7153497246864149  0.5499999999999485  1.0000
  C   C37       1.0  0.858058415188895  0.8185788817343838  0.5499999999999484  1.0000
  C   C38       1.0  0.842391207677367  0.8146181101813693  0.5499999999999484  1.0000
  C   C39       1.0  0.8295274500762901  0.7966546001993389  0.5499999999999483  1.0000
  C   C40       1.0  0.8612679963948375  0.8052570837335534  0.5499999999999482  1.0000
  C   C41       1.0  0.8489074822966823  0.7875713288050784  0.5499999999999483  1.0000
  C   C42       1.0  0.8327819853355208  0.7831457836509346  0.5499999999999483  1.0000
  C   C43       1.0  0.9641683022963261  0.03826165216804831  0.5499999999999479  1.0000
  C   C44       1.0  0.964038717318466  0.05349148241557176  0.5499999999999479  1.0000
  C   C45       1.0  0.9489193758764826  0.051773461233068065  0.5499999999999479  1.0000
  C   C46       1.0  0.9497720229641683  0.021478061550699926  0.549999999999948  1.0000
  C   C47       1.0  0.934810460512919  0.019416376037417128  0.549999999999948  1.0000
  C   C48       1.0  0.934321019764298  0.03475437980085096  0.5499999999999479  1.0000
  C   C49       1.0  0.8337935138144127  0.13490189039633124  0.5499999999999506  1.0000
  C   C50       1.0  0.8200129448679764  0.1353719628826622  0.5499999999999506  1.0000
  C   C51       1.0  0.8048090186936074  0.11916503508149674  0.5499999999999504  1.0000
  C   C52       1.0  0.8328802562542765  0.11886492593932671  0.5499999999999504  1.0000
  C   C53       1.0  0.8181587687588011  0.10281268205359395  0.5499999999999505  1.0000
  C   C54       1.0  0.8038828559954166  0.10290296781556411  0.5499999999999505  1.0000
  C   C55       1.0  0.9363702643471501  0.3682268677809987  0.5499999999999488  1.0000
  C   C56       1.0  0.921259008994888  0.3526447610221962  0.5499999999999489  1.0000
  C   C57       1.0  0.9204212204332819  0.33652815532110536  0.5499999999999486  1.0000
  C   C58       1.0  0.9505806853631809  0.368226901247184  0.5499999999999488  1.0000
  C   C59       1.0  0.9501099003534033  0.3526448045493479  0.5499999999999489  1.0000
  C   C60       1.0  0.9348310142453136  0.33652809197622624  0.5499999999999486  1.0000
  C   C61       1.0  0.16300710355023007  0.5001333167894918  0.5499999999999483  1.0000
  C   C62       1.0  0.14846500413686056  0.49903929391144736  0.5499999999999483  1.0000
  C   C63       1.0  0.13398495483851078  0.4821002583871961  0.5499999999999482  1.0000
  C   C64       1.0  0.16354596295157015  0.4849471830097221  0.5499999999999483  1.0000
  C   C65       1.0  0.1495590085267996  0.4682074220538245  0.5499999999999482  1.0000
  C   C66       1.0  0.13453128724907598  0.466700954871914  0.5499999999999482  1.0000
  C   C67       1.0  0.2678505330276126  0.7337143411341409  0.5499999999999483  1.0000
  C   C68       1.0  0.25217978712506145  0.7190053619272111  0.5499999999999484  1.0000
  C   C69       1.0  0.24988464648540415  0.7021429348965146  0.5499999999999484  1.0000
  C   C70       1.0  0.2812168235369084  0.7321302874699054  0.5499999999999483  1.0000
  C   C71       1.0  0.2793168693034703  0.7157892907650892  0.5499999999999484  1.0000
  C   C72       1.0  0.26343845750765466  0.7005365545475727  0.5499999999999484  1.0000
  C   C73       1.0  0.19842613964935446  0.8641671411141306  0.5499999999999466  1.0000
  C   C74       1.0  0.18464557088655922  0.864637213953787  0.5499999999999466  1.0000
  C   C75       1.0  0.16944164456109156  0.8484302863316208  0.5499999999999466  1.0000
  C   C76       1.0  0.1975128817615835  0.8481301764780073  0.5499999999999466  1.0000
  C   C77       1.0  0.18279139411219922  0.8320779327610609  0.5499999999999465  1.0000
  C   C78       1.0  0.16851548153066817  0.832168218884057  0.5499999999999465  1.0000
  C   C79       1.0  0.3143160955139373  0.0817365878663326  0.5499999999999482  1.0000
  C   C80       1.0  0.3156467817807045  0.09778876729600347  0.5499999999999483  1.0000
  C   C81       1.0  0.30128064383766734  0.09769844501389802  0.5499999999999483  1.0000
  C   C82       1.0  0.2991924167586532  0.06569958958490185  0.5499999999999482  1.0000
  C   C83       1.0  0.28494171394935897  0.06522944221245987  0.5499999999999482  1.0000
  C   C84       1.0  0.2859446871458128  0.08143644072957619  0.5499999999999482  1.0000
  C   C85       1.0  0.1839542406134977  0.18071054567275985  0.5499999999999492  1.0000
  C   C86       1.0  0.16939807737941476  0.1795854981156545  0.5499999999999492  1.0000
  C   C87       1.0  0.1549335007511842  0.1626331621199284  0.5499999999999493  1.0000
  C   C88       1.0  0.1845219389927762  0.16554246185713584  0.5499999999999493  1.0000
  C   C89       1.0  0.17055063250393  0.14879027241302983  0.5499999999999491  1.0000
  C   C90       1.0  0.15550907685540052  0.14725216173667838  0.5499999999999491  1.0000
  C   C91       1.0  0.2895311262613158  0.40422241045879387  0.5499999999999504  1.0000
  C   C92       1.0  0.2867883354923386  0.41768812325823645  0.5499999999999506  1.0000
  C   C93       1.0  0.2706088213322475  0.413087355827821  0.5499999999999506  1.0000
  C   C94       1.0  0.2767129551065277  0.3864222994146008  0.5499999999999505  1.0000
  C   C95       1.0  0.2607640517924122  0.38154920865643566  0.5499999999999505  1.0000
  C   C96       1.0  0.2576107084829211  0.39503747438289205  0.5499999999999505  1.0000
  C   C97       1.0  0.6658669976952336  0.6095597083874481  0.549999999999947  1.0000
  C   C98       1.0  0.6586790546504548  0.6190988350527111  0.5499999999999469  1.0000
  C   C99       1.0  0.6416067701762929  0.6096896134065625  0.549999999999947  1.0000
  C   C100      1.0  0.656608068129117  0.5910417973664356  0.549999999999947  1.0000
  C   C101      1.0  0.6398809662598804  0.5815025903998139  0.5499999999999469  1.0000
  C   C102      1.0  0.6322178311004785  0.5909118319418818  0.549999999999947  1.0000
  C   C103      1.0  0.47905565810452716  0.6186561700754367  0.5499999999999494  1.0000
  C   C104      1.0  0.46237495565489184  0.6099312329898499  0.5499999999999494  1.0000
  C   C105      1.0  0.4531132674563255  0.5912692323258266  0.5499999999999495  1.0000
  C   C106      1.0  0.48673277903689527  0.6093972437816416  0.5499999999999494  1.0000
  C   C107      1.0  0.4779615165355898  0.5911331488343958  0.5499999999999495  1.0000
  C   C108      1.0  0.460898045541649  0.5818802869726423  0.5499999999999493  1.0000
  B   B1        1.0  0.4818765472303756  0.7401981165456174  0.549999999999948  1.0000
  B   B2        1.0  0.4765561700019856  0.6695211515646559  0.5499999999999478  1.0000
  O   O1        1.0  0.46147517834787993  0.6531728085404327  0.5499999999999475  1.0000
  C   C109      1.0  0.49395433604971106  0.7043905587421477  0.5499999999999479  1.0000
  C   C110      1.0  0.46513618993497585  0.639256903557359  0.5499999999999476  1.0000
  C   C111      1.0  0.4549031855644588  0.6202332860908696  0.5499999999999474  1.0000
  O   O2        1.0  0.4958307642076737  0.7577205880866515  0.5499999999999479  1.0000
  C   C112      1.0  0.4663816316356584  0.7060347840677044  0.5499999999999479  1.0000
  C   C113      1.0  0.48929861179206396  0.7697184447089263  0.5499999999999479  1.0000
  C   C114      1.0  0.49625019340596327  0.7891132406096799  0.549999999999948  1.0000
  O   O3        1.0  0.46768720548380627  0.7402699877382237  0.549999999999948  1.0000
  C   C115      1.0  0.4953701032334687  0.721584513045791  0.5499999999999478  1.0000
  C   C116      1.0  0.4723950573759451  0.758371347381403  0.5499999999999479  1.0000
  C   C117      1.0  0.46214309126506914  0.7644502609947498  0.5499999999999479  1.0000
  O   O4        1.0  0.48944750364131545  0.6669304140450129  0.5499999999999478  1.0000
  C   C118      1.0  0.46502540492532657  0.6895721244982292  0.5499999999999476  1.0000
  C   C119      1.0  0.48199807406084816  0.6476349302593359  0.5499999999999475  1.0000
  C   C120      1.0  0.4891812159972459  0.6376637825629377  0.5499999999999476  1.0000
  C   C121      1.0  0.47859421766220817  0.687981508350401  0.5499999999999476  1.0000
  C   C122      1.0  0.48139844988395436  0.7226024243949521  0.5499999999999478  1.0000
  H   H1        1.0  0.5048767961046114  0.7035136545424227  0.5499999999999479  1.0000
  H   H2        1.0  0.45514694255068383  0.7059679804537078  0.5499999999999479  1.0000
  H   H3        1.0  0.5074076375761771  0.7346251149759347  0.549999999999948  1.0000
  H   H4        1.0  0.45280052768144735  0.6771981581243349  0.5499999999999476  1.0000
  H   H5        1.0  0.44158857691103237  0.6132862012846785  0.5499999999999474  1.0000
  H   H6        1.0  0.509451041937779  0.7988540253546343  0.549999999999948  1.0000
  H   H7        1.0  0.4488901635990813  0.7550207356162468  0.5499999999999479  1.0000
  H   H8        1.0  0.502460394626569  0.6442511063644278  0.5499999999999475  1.0000
  B   B3        1.0  0.4061015658771463  0.7774653234368966  0.549999999999948  1.0000
  B   B4        1.0  0.3354041298636559  0.7487587672210614  0.5499999999999479  1.0000
  O   O5        1.0  0.328434351692672  0.7587731763162022  0.5499999999999479  1.0000
  C   C123      1.0  0.3596408293895812  0.7455268151159965  0.5499999999999479  1.0000
  C   C124      1.0  0.31101803552538376  0.7458026536958405  0.5499999999999479  1.0000
  C   C125      1.0  0.2977985015553392  0.7478467771028643  0.5499999999999479  1.0000
  O   O6        1.0  0.41183721335956247  0.7663227605526944  0.5499999999999479  1.0000
  C   C126      1.0  0.382298468179433  0.7818773941713878  0.549999999999948  1.0000
  C   C127      1.0  0.4291290581741087  0.7777870958994536  0.549999999999948  1.0000
  C   C128      1.0  0.4406351096191712  0.7734115014911074  0.5499999999999481  1.0000
  O   O7        1.0  0.4187220759516373  0.7953982173085383  0.549999999999948  1.0000
  C   C129      1.0  0.37619451020404093  0.7522583738513896  0.5499999999999479  1.0000
  C   C130      1.0  0.433558683711821  0.7954039426716948  0.549999999999948  1.0000
  C   C131      1.0  0.45015056544032184  0.8093562876300234  0.5499999999999481  1.0000
  O   O8        1.0  0.32374031126223923  0.7305820868815558  0.5499999999999478  1.0000
  C   C132      1.0  0.3653193557675878  0.7749729340917644  0.549999999999948  1.0000
  C   C133      1.0  0.3083864823716894  0.7289068926011598  0.5499999999999478  1.0000
  C   C134      1.0  0.2927821653298627  0.7136931094484341  0.5499999999999478  1.0000
  C   C135      1.0  0.35358187176122113  0.7565365611696666  0.5499999999999479  1.0000
  C   C136      1.0  0.3881018577231012  0.7705700473578924  0.5499999999999481  1.0000
  H   H9        1.0  0.3509548781321444  0.7310581902824642  0.5499999999999478  1.0000
  H   H10       1.0  0.3914251973525945  0.7963953888366027  0.549999999999948  1.0000
  H   H11       1.0  0.3801185882073753  0.742915440558644  0.5499999999999479  1.0000
  H   H12       1.0  0.36089731554543314  0.7839838210283122  0.549999999999948  1.0000
  H   H13       1.0  0.29956114737374606  0.7610103514957289  0.5499999999999479  1.0000
  H   H14       1.0  0.43711291943738356  0.7595248653826153  0.5499999999999479  1.0000
  H   H15       1.0  0.45402216483720037  0.8233592061084498  0.5499999999999481  1.0000
  H   H16       1.0  0.29066011293106614  0.7003637530463663  0.5499999999999479  1.0000
  B   B5        1.0  0.522105886627907  0.8780675857838907  0.5499999999999483  1.0000
  B   B6        1.0  0.564391293593919  0.9585840301872856  0.5499999999999485  1.0000
  O   O9        1.0  0.5814494554612788  0.9688630338050794  0.5499999999999485  1.0000
  C   C137      1.0  0.5366502116061368  0.9281620415636935  0.5499999999999484  1.0000
  C   C138      1.0  0.586330401456749  0.9873642445962884  0.5499999999999486  1.0000
  C   C139      1.0  0.6019151219266445  0.0029958794535394663  0.5499999999999486  1.0000
  O   O10       1.0  0.5051546083286432  0.8690365102712352  0.5499999999999482  1.0000
  C   C140      1.0  0.5506005037914606  0.9081900009170268  0.5499999999999483  1.0000
  C   C141      1.0  0.4989036524135894  0.85041196354186  0.5499999999999482  1.0000
  C   C142      1.0  0.4827668952979805  0.8363612214149052  0.5499999999999481  1.0000
  O   O11       1.0  0.5271601385662541  0.8660888349548206  0.5499999999999482  1.0000
  C   C143      1.0  0.5268297282956569  0.9092975268166285  0.5499999999999483  1.0000
  C   C144      1.0  0.5117246802250108  0.8478966215316569  0.5499999999999482  1.0000
  C   C145      1.0  0.50783703770726  0.8297099327763133  0.5499999999999481  1.0000
  O   O12       1.0  0.5581320371326838  0.969397151125726  0.5499999999999485  1.0000
  C   C146      1.0  0.560665261305247  0.9275231313063074  0.5499999999999484  1.0000
  C   C147      1.0  0.5723951563694505  0.9879025880455403  0.5499999999999486  1.0000
  C   C148      1.0  0.5739583539815872  0.00472311634146966  0.5499999999999486  1.0000
  C   C149      1.0  0.5538543330731188  0.9379599330224708  0.5499999999999484  1.0000
  C   C150      1.0  0.5333496646867304  0.8986392689574966  0.5499999999999483  1.0000
  H   H17       1.0  0.5308077699520948  0.935772853867684  0.5499999999999484  1.0000
  H   H18       1.0  0.5560590521740483  0.900070607653197  0.5499999999999483  1.0000
  H   H19       1.0  0.5134821685752425  0.9025273663249153  0.5499999999999483  1.0000
  H   H20       1.0  0.5741704756126751  0.9348188543232334  0.5499999999999484  1.0000
  H   H21       1.0  0.6128631526325491  0.002519578412366222  0.5499999999999486  1.0000
  H   H22       1.0  0.4729259379396121  0.8387589054177248  0.5499999999999481  1.0000
  H   H23       1.0  0.5174220006971838  0.8269111559840242  0.5499999999999481  1.0000
  H   H24       1.0  0.5632266845450826  0.005603464515721971  0.5499999999999486  1.0000
  B   B7        1.0  0.6761562991268499  0.06382006761199027  0.5499999999999496  1.0000
  B   B8        1.0  0.7477914562182315  0.08716166551400822  0.5499999999999496  1.0000
  O   O13       1.0  0.7540511795483917  0.07621811561439402  0.5499999999999496  1.0000
  C   C151      1.0  0.7245329577150286  0.09307481499421058  0.5499999999999499  1.0000
  C   C152      1.0  0.7724960022131943  0.08885445969673124  0.5499999999999496  1.0000
  C   C153      1.0  0.786617776956507  0.08705569031493832  0.5499999999999496  1.0000
  O   O14       1.0  0.6705886626029268  0.07537388773228088  0.5499999999999496  1.0000
  C   C154      1.0  0.6991469109970279  0.057238932936437004  0.5499999999999498  1.0000
  C   C155      1.0  0.6522648779073561  0.06363551156496523  0.5499999999999496  1.0000
  C   C156      1.0  0.6391417784287456  0.06681601538404693  0.5499999999999496  1.0000
  O   O15       1.0  0.6629457463726783  0.04603181488804386  0.5499999999999495  1.0000
  C   C157      1.0  0.7076984961457609  0.0877325619829053  0.5499999999999496  1.0000
  C   C158      1.0  0.6481390088884034  0.046127285554729495  0.5499999999999495  1.0000
  C   C159      1.0  0.6319399408545089  0.03172029744279674  0.5499999999999495  1.0000
  O   O16       1.0  0.7605033893664233  0.1051321496496882  0.5499999999999498  1.0000
  C   C160      1.0  0.716209269214886  0.0626536686548301  0.5499999999999496  1.0000
  C   C161      1.0  0.7756363992379651  0.10597312170621694  0.5499999999999498  1.0000
  C   C162      1.0  0.7913427862784881  0.12107379671972222  0.5499999999999498  1.0000
  C   C163      1.0  0.7293672613577243  0.08080404655938217  0.5499999999999496  1.0000
  C   C164      1.0  0.6944564906511892  0.0696679300190512  0.5499999999999496  1.0000
  H   H25       1.0  0.7343305014014776  0.10736865080316729  0.5499999999999498  1.0000
  H   H26       1.0  0.6891173619417503  0.04294529379926962  0.5499999999999495  1.0000
  H   H27       1.0  0.7045173132083274  0.09787595762576382  0.5499999999999498  1.0000
  H   H28       1.0  0.7196623409826903  0.052673368111729284  0.5499999999999495  1.0000
  H   H29       1.0  0.7849918305675258  0.07395733455009691  0.5499999999999496  1.0000
  H   H30       1.0  0.6417371588683906  0.08035010582559766  0.5499999999999496  1.0000
  H   H31       1.0  0.6289775433730147  0.018039211040461106  0.5499999999999496  1.0000
  H   H32       1.0  0.7933427122534459  0.13434773608253112  0.5499999999999499  1.0000
  B   B9        1.0  0.5763215445438765  0.07937527153143638  0.5499999999999496  1.0000
  B   B10       1.0  0.5427033312079109  0.1212260534747836  0.5499999999999498  1.0000
  O   O17       1.0  0.5510931925064427  0.1399332751689087  0.5499999999999499  1.0000
  C   C165      1.0  0.5425105737383632  0.09154229883256534  0.5499999999999499  1.0000
  C   C166      1.0  0.5387171910880268  0.14459772226243353  0.5499999999999499  1.0000
  C   C167      1.0  0.5405217805569754  0.16147021689105184  0.5499999999999501  1.0000
  O   O18       1.0  0.5679316233989403  0.06066812849905856  0.5499999999999498  1.0000
  C   C168      1.0  0.5765142331402043  0.10905906241306111  0.5499999999999498  1.0000
  C   C169      1.0  0.5803076422499267  0.056003727429345486  0.5499999999999498  1.0000
  C   C170      1.0  0.5785030373777484  0.03913119875365427  0.5499999999999495  1.0000
  O   O19       1.0  0.5933187742037567  0.08693205689227555  0.5499999999999496  1.0000
  C   C171      1.0  0.5505395573716702  0.08167767196533322  0.5499999999999496  1.0000
  C   C172      1.0  0.5957131686901995  0.071675857579935  0.5499999999999496  1.0000
  C   C173      1.0  0.6100268773328458  0.07059549518103671  0.5499999999999496  1.0000
  O   O20       1.0  0.525706083284618  0.11366939089917642  0.5499999999999498  1.0000
  C   C174      1.0  0.5684853168561826  0.11892375710220002  0.5499999999999498  1.0000
  C   C175      1.0  0.5233116439112433  0.12892557193597953  0.5499999999999499  1.0000
  C   C176      1.0  0.5089979585266371  0.13000594809153815  0.5499999999999499  1.0000
  C   C177      1.0  0.5512582009777647  0.11046785074669699  0.5499999999999498  1.0000
  C   C178      1.0  0.5677665436321159  0.09013366908307355  0.5499999999999499  1.0000
  H   H33       1.0  0.5289608006454238  0.08444461233041005  0.5499999999999496  1.0000
  H   H34       1.0  0.5900640209994958  0.11615680376765013  0.5499999999999498  1.0000
  H   H35       1.0  0.5432401962934555  0.06687065459162608  0.5499999999999496  1.0000
  H   H36       1.0  0.575784629674064  0.13373076633356465  0.5499999999999499  1.0000
  H   H37       1.0  0.5526763786292919  0.17378413122903294  0.54999999999995  1.0000
  H   H38       1.0  0.5663484532095239  0.026817287172714234  0.5499999999999496  1.0000
  H   H39       1.0  0.622334121910532  0.08268248490574384  0.5499999999999496  1.0000
  H   H40       1.0  0.4966907101573381  0.11791895519771538  0.5499999999999498  1.0000
  B   B11       1.0  0.44286854158428524  0.136781359642984  0.5499999999999474  1.0000
  B   B12       1.0  0.37123338449290116  0.1134397617409561  0.549999999999947  1.0000
  O   O21       1.0  0.3649736611627379  0.12438331164056712  0.549999999999947  1.0000
  C   C179      1.0  0.3944918829961074  0.10752661226075956  0.5499999999999471  1.0000
  C   C180      1.0  0.3465288384979352  0.11174696755822626  0.5499999999999471  1.0000
  C   C181      1.0  0.33240706375461937  0.11354573694001412  0.549999999999947  1.0000
  O   O22       1.0  0.4484361781082085  0.12522753952269383  0.549999999999947  1.0000
  C   C182      1.0  0.4198779297141051  0.14336249431853432  0.5499999999999474  1.0000
  C   C183      1.0  0.46675996280377857  0.13696591569000935  0.5499999999999474  1.0000
  C   C184      1.0  0.479883062282388  0.13378541187092666  0.5499999999999474  1.0000
  O   O23       1.0  0.45607909433845634  0.15456961236693068  0.5499999999999473  1.0000
  C   C185      1.0  0.41132634456537526  0.11286886527206705  0.549999999999947  1.0000
  C   C186      1.0  0.4708858318227317  0.15447414170024518  0.5499999999999473  1.0000
  C   C187      1.0  0.48708489985662673  0.16888112981217768  0.5499999999999475  1.0000
  O   O24       1.0  0.35852145134471197  0.0954692776052752  0.5499999999999471  1.0000
  C   C188      1.0  0.40281557149624575  0.13794775860013872  0.5499999999999474  1.0000
  C   C189      1.0  0.3433884414731682  0.09462830554874217  0.5499999999999471  1.0000
  C   C190      1.0  0.3276820544326473  0.07952763053523436  0.5499999999999469  1.0000
  C   C191      1.0  0.3896575793534091  0.11979738069558576  0.549999999999947  1.0000
  C   C192      1.0  0.4245683500599456  0.1309334972359216  0.5499999999999474  1.0000
  H   H41       1.0  0.38469433930966024  0.09323277645180235  0.5499999999999471  1.0000
  H   H42       1.0  0.4299074787693819  0.15765613345570217  0.5499999999999473  1.0000
  H   H43       1.0  0.41450752750280945  0.10272546962920953  0.5499999999999471  1.0000
  H   H44       1.0  0.39936249972843935  0.1479280591432377  0.5499999999999473  1.0000
  H   H45       1.0  0.3340330101435974  0.12664409270485386  0.5499999999999474  1.0000
  H   H46       1.0  0.47728768184274234  0.12025132142937557  0.549999999999947  1.0000
  H   H47       1.0  0.49004729733812163  0.1825622162145136  0.5499999999999474  1.0000
  H   H48       1.0  0.32568212845769284  0.06625369117242695  0.549999999999947  1.0000
  B   B13       1.0  0.5546334499620903  0.24201725202095556  0.5499999999999478  1.0000
  B   B14       1.0  0.5969188512300313  0.32253369879424115  0.5499999999999479  1.0000
  O   O25       1.0  0.6138702128700956  0.33156492189136183  0.5499999999999479  1.0000
  C   C193      1.0  0.5684242769239204  0.2924113963064865  0.5499999999999478  1.0000
  C   C194      1.0  0.6201212113176576  0.35018949396338217  0.549999999999948  1.0000
  C   C195      1.0  0.6362579381410631  0.3642402211110966  0.549999999999948  1.0000
  O   O26       1.0  0.5375753644038272  0.23173839614499117  0.5499999999999475  1.0000
  C   C196      1.0  0.5823745694157957  0.2724393555583232  0.5499999999999479  1.0000
  C   C197      1.0  0.5326944603971083  0.21323721419534047  0.5499999999999475  1.0000
  C   C198      1.0  0.517109708891906  0.19760556063713577  0.5499999999999476  1.0000
  O   O27       1.0  0.5608928219418158  0.2312042790777234  0.5499999999999475  1.0000
  C   C199      1.0  0.5583595786244132  0.2730782601666561  0.5499999999999479  1.0000
  C   C200      1.0  0.5466296875525656  0.21269887237658539  0.5499999999999475  1.0000
  C   C201      1.0  0.5450665017878338  0.19587833297092427  0.5499999999999474  1.0000
  O   O28       1.0  0.5918647198096622  0.3345125935885959  0.5499999999999479  1.0000
  C   C202      1.0  0.5921951115233689  0.29130386520366147  0.5499999999999478  1.0000
  C   C203      1.0  0.6073001676665342  0.3527048411147346  0.549999999999948  1.0000
  C   C204      1.0  0.611187820302484  0.3708915164225309  0.549999999999948  1.0000
  C   C205      1.0  0.5856752735623723  0.30196236074483473  0.5499999999999478  1.0000
  C   C206      1.0  0.5651706004062008  0.26264169658867914  0.5499999999999476  1.0000
  H   H49       1.0  0.5629657798212553  0.3005308299310743  0.5499999999999478  1.0000
  H   H50       1.0  0.5882170613934585  0.26482858283491917  0.5499999999999476  1.0000
  H   H51       1.0  0.544854360164071  0.26578258290499157  0.5499999999999476  1.0000
  H   H52       1.0  0.605542667344019  0.2980740708072962  0.5499999999999478  1.0000
  H   H53       1.0  0.6460988957200833  0.3618425237148045  0.549999999999948  1.0000
  H   H54       1.0  0.5061616802124711  0.19808184933133727  0.5499999999999476  1.0000
  H   H55       1.0  0.5557981684457176  0.19499798567110344  0.5499999999999474  1.0000
  H   H56       1.0  0.6016028552383351  0.3736902951194174  0.549999999999948  1.0000
  B   B15       1.0  0.7129232748340587  0.42313610381805844  0.5499999999999471  1.0000
  B   B16       1.0  0.7836207108475504  0.45184266003389356  0.5499999999999474  1.0000
  O   O29       1.0  0.7905904890185348  0.44182825093875316  0.549999999999947  1.0000
  C   C207      1.0  0.7593840113216245  0.4550746121389577  0.5499999999999474  1.0000
  C   C208      1.0  0.8080068051858232  0.45479877355911524  0.5499999999999474  1.0000
  C   C209      1.0  0.8212263391558687  0.4527546501520927  0.5499999999999474  1.0000
  O   O30       1.0  0.7071876273516436  0.43427866670226134  0.5499999999999471  1.0000
  C   C210      1.0  0.7367263725317722  0.4187240330835663  0.5499999999999471  1.0000
  C   C211      1.0  0.6898957825370972  0.42281433135550356  0.5499999999999471  1.0000
  C   C212      1.0  0.6783897310920359  0.42718992576385156  0.5499999999999471  1.0000
  O   O31       1.0  0.7003027647595669  0.40520320994641684  0.5499999999999469  1.0000
  C   C213      1.0  0.7428303305071647  0.44834305340356484  0.5499999999999474  1.0000
  C   C214      1.0  0.6854661569993832  0.40519748458326177  0.5499999999999469  1.0000
  C   C215      1.0  0.6688742752708811  0.3912451396249343  0.549999999999947  1.0000
  O   O32       1.0  0.7952845294489668  0.4700193403733993  0.5499999999999473  1.0000
  C   C216      1.0  0.7537054849436179  0.4256284931631898  0.5499999999999471  1.0000
  C   C217      1.0  0.8106383583395171  0.47169453465379596  0.5499999999999473  1.0000
  C   C218      1.0  0.826242675381344  0.486908317806522  0.5499999999999475  1.0000
  C   C219      1.0  0.7654429689499848  0.44406486608528795  0.549999999999947  1.0000
  C   C220      1.0  0.7309229829881041  0.43003137989706186  0.5499999999999471  1.0000
  H   H57       1.0  0.7680699625790611  0.46954323697249  0.5499999999999473  1.0000
  H   H58       1.0  0.7275996433586102  0.40420603841835145  0.5499999999999469  1.0000
  H   H59       1.0  0.7389062525038306  0.45768598669631055  0.5499999999999474  1.0000
  H   H60       1.0  0.758127525165773  0.4166176062266422  0.5499999999999471  1.0000
  H   H61       1.0  0.8194636933374623  0.4395910757592282  0.549999999999947  1.0000
  H   H62       1.0  0.6819119212738254  0.44107656187234456  0.549999999999947  1.0000
  H   H63       1.0  0.6650026758740009  0.3772422211465073  0.549999999999947  1.0000
  H   H64       1.0  0.8283647277801404  0.5002376742085897  0.5499999999999474  1.0000
  B   B17       1.0  0.6371482934808385  0.46040331070934953  0.5499999999999474  1.0000
  B   B18       1.0  0.6424686707092295  0.5310802756903097  0.5499999999999476  1.0000
  O   O33       1.0  0.6575496623633347  0.547428618714533  0.5499999999999475  1.0000
  C   C221      1.0  0.6250705046615046  0.4962108685128189  0.5499999999999475  1.0000
  C   C222      1.0  0.6538886507762375  0.5613445236976055  0.5499999999999478  1.0000
  C   C223      1.0  0.6641216551467531  0.5803681411640949  0.5499999999999476  1.0000
  O   O34       1.0  0.6231940765035398  0.44288083916831633  0.549999999999947  1.0000
  C   C224      1.0  0.6526432090755568  0.49456664318726196  0.5499999999999475  1.0000
  C   C225      1.0  0.6297262289191476  0.43088298254604096  0.5499999999999471  1.0000
  C   C226      1.0  0.6227746473052467  0.4114881866452875  0.5499999999999469  1.0000
  O   O35       1.0  0.6513376352274071  0.46033143951674177  0.5499999999999474  1.0000
  C   C227      1.0  0.6236547374777467  0.47901691420917636  0.5499999999999473  1.0000
  C   C228      1.0  0.6466297833352667  0.44223007987356244  0.549999999999947  1.0000
  C   C229      1.0  0.6568817494461414  0.4361511662602142  0.549999999999947  1.0000
  O   O36       1.0  0.629577337069899  0.5336710132099514  0.5499999999999475  1.0000
  C   C230      1.0  0.6539994357858891  0.5110293027567373  0.5499999999999474  1.0000
  C   C231      1.0  0.6370267666503652  0.5529664969956272  0.5499999999999475  1.0000
  C   C232      1.0  0.6298436247139659  0.5629376446920233  0.5499999999999478  1.0000
  C   C233      1.0  0.6404306230490076  0.5126199189045654  0.5499999999999474  1.0000
  C   C234      1.0  0.6376263908272608  0.47799900286001484  0.5499999999999473  1.0000
  H   H65       1.0  0.6141480446066042  0.49708777271254345  0.5499999999999475  1.0000
  H   H66       1.0  0.6638778981605316  0.4946334468012583  0.5499999999999475  1.0000
  H   H67       1.0  0.6116172031350382  0.465976312279033  0.5499999999999473  1.0000
  H   H68       1.0  0.6662243130297683  0.5234032691306315  0.5499999999999476  1.0000
  H   H69       1.0  0.6774362638001797  0.5873152259702872  0.5499999999999476  1.0000
  H   H70       1.0  0.6095737987734305  0.4017474019003345  0.5499999999999469  1.0000
  H   H71       1.0  0.6701346771121292  0.44558069163871555  0.549999999999947  1.0000
  H   H72       1.0  0.6165644460846427  0.5563503208905317  0.5499999999999478  1.0000
  B   B19       1.0  0.895665976971921  0.5606925914786363  0.5499999999999498  1.0000
  B   B20       1.0  0.9352740191583874  0.6399086956775224  0.54999999999995  1.0000
  O   O37       1.0  0.9522636561745841  0.6509321135831894  0.54999999999995  1.0000
  C   C235      1.0  0.90841970574485  0.6095651638377283  0.5499999999999499  1.0000
  C   C236      1.0  0.9559051764721445  0.6690087306163331  0.5499999999999501  1.0000
  C   C237      1.0  0.9707903164524135  0.6857882526683073  0.5499999999999501  1.0000
  O   O38       1.0  0.8787233339501157  0.5509843299789134  0.5499999999999496  1.0000
  C   C238      1.0  0.9233662476946598  0.5907809949140035  0.5499999999999498  1.0000
  C   C239      1.0  0.8735508662448571  0.5326725228556562  0.5499999999999496  1.0000
  C   C240      1.0  0.8578783822328396  0.5175165576379527  0.5499999999999495  1.0000
  O   O39       1.0  0.9016323114571281  0.5496693211169712  0.5499999999999496  1.0000
  C   C241      1.0  0.8991552676071567  0.5910362220772067  0.54999999999995  1.0000
  C   C242      1.0  0.8871972140755983  0.5315927653173832  0.5499999999999496  1.0000
  C   C243      1.0  0.8853029068178909  0.5148132267371183  0.5499999999999495  1.0000
  O   O40       1.0  0.9280397061532437  0.6496170987926552  0.54999999999995  1.0000
  C   C244      1.0  0.9328859868852696  0.6098204154674974  0.5499999999999499  1.0000
  C   C245      1.0  0.9411790201767721  0.6679289025004936  0.5499999999999501  1.0000
  C   C246      1.0  0.9406624456428699  0.6830848421926389  0.5499999999999501  1.0000
  C   C247      1.0  0.925531744384509  0.6196384846503277  0.5499999999999499  1.0000
  C   C248      1.0  0.9061940962115909  0.5809631443444643  0.5499999999999498  1.0000
  H   H73       1.0  0.9021281856748372  0.6166105935569357  0.5499999999999499  1.0000
  H   H74       1.0  0.9292504182026777  0.5831724026354372  0.5499999999999498  1.0000
  H   H75       1.0  0.8858183135307436  0.5839908236653185  0.5499999999999498  1.0000
  H   H76       1.0  0.9463787381773091  0.6174290608930687  0.5499999999999499  1.0000
  H   H77       1.0  0.9825677482594808  0.6870414258271773  0.5499999999999501  1.0000
  H   H78       1.0  0.8471331936969996  0.5183719214274467  0.5499999999999495  1.0000
  H   H79       1.0  0.8958271152752536  0.5135600392161704  0.5499999999999495  1.0000
  H   H80       1.0  0.9290619279845993  0.6822294881561096  0.5499999999999501  1.0000
  B   B21       1.0  0.8791366063135673  0.4386576939975618  0.5499999999999493  1.0000
  B   B22       1.0  0.9058660471129724  0.3932769552824556  0.5499999999999492  1.0000
  O   O41       1.0  0.8966739046542581  0.3747333945376005  0.5499999999999491  1.0000
  C   C249      1.0  0.9088662762101047  0.4232943925281852  0.5499999999999494  1.0000
  C   C250      1.0  0.9085909604934436  0.3698897474193219  0.5499999999999491  1.0000
  C   C251      1.0  0.9068946140858116  0.35324664953349644  0.5499999999999492  1.0000
  O   O42       1.0  0.8888922834978327  0.4571519570165708  0.5499999999999495  1.0000
  C   C252      1.0  0.8755583768025079  0.4081953838569584  0.5499999999999492  1.0000
  C   C253      1.0  0.8777154024053548  0.4628192908101711  0.5499999999999494  1.0000
  C   C254      1.0  0.8805904705427279  0.4798692468606269  0.5499999999999494  1.0000
  O   O43       1.0  0.862609126370205  0.4322566103899247  0.5499999999999493  1.0000
  C   C255      1.0  0.902604645729828  0.43401412287326446  0.5499999999999493  1.0000
  C   C256      1.0  0.8618900820980913  0.4478058187427031  0.5499999999999495  1.0000
  C   C257      1.0  0.8485056080514586  0.4493090597679643  0.5499999999999495  1.0000
  O   O44       1.0  0.9225010885404576  0.40037755296680194  0.5499999999999492  1.0000
  C   C258      1.0  0.8819061240902258  0.3973281873014242  0.5499999999999492  1.0000
  C   C259      1.0  0.9240333069129835  0.3855102295592184  0.5499999999999493  1.0000
  C   C260      1.0  0.9379964870761784  0.38530359556033716  0.5499999999999493  1.0000
  C   C261      1.0  0.8987826499726917  0.4046529583343422  0.5499999999999492  1.0000
  C   C262      1.0  0.8857883787764788  0.4268630199873732  0.5499999999999493  1.0000
  H   H81       1.0  0.9221284993596345  0.42959133192435145  0.5499999999999493  1.0000
  H   H82       1.0  0.8622698780686742  0.402127760186035  0.5499999999999492  1.0000
  H   H83       1.0  0.9110361058275476  0.4485615007779023  0.5499999999999495  1.0000
  H   H84       1.0  0.8736392197825962  0.38268544957232553  0.5499999999999493  1.0000
  H   H85       1.0  0.8949111953877833  0.34070440904474447  0.5499999999999492  1.0000
  H   H86       1.0  0.892969619136637  0.4918397798516243  0.5499999999999496  1.0000
  H   H87       1.0  0.8359949055836756  0.437569030893423  0.5499999999999493  1.0000
  H   H88       1.0  0.9501356669522877  0.3976388030150856  0.5499999999999492  1.0000
  B   B23       1.0  0.040779626467709953  0.7619437465887845  0.5499999999999485  1.0000
  B   B24       1.0  0.1128898056457809  0.8073245134003483  0.5499999999999489  1.0000
  O   O45       1.0  0.12242425258936916  0.8002239149430602  0.5499999999999486  1.0000
  C   C263      1.0  0.08487864114385898  0.8032732528896024  0.5499999999999486  1.0000
  C   C264      1.0  0.1388238227475605  0.8150912511307985  0.5499999999999489  1.0000
  C   C265      1.0  0.15299364052083422  0.8152979580267544  0.5499999999999489  1.0000
  O   O46       1.0  0.030653228296115748  0.7683447870944535  0.5499999999999485  1.0000
  C   C266      1.0  0.0688912494676969  0.7665873270132675  0.5499999999999485  1.0000
  C   C267      1.0  0.01438494799209621  0.7527955689698526  0.5499999999999486  1.0000
  C   C268      1.0  0.9994972264940049  0.751292256665711  0.5499999999999486  1.0000
  O   O47       1.0  0.03204104704950354  0.7434494456635767  0.5499999999999486  1.0000
  C   C269      1.0  0.06766369429762575  0.7924060500951878  0.5499999999999488  1.0000
  C   C270      1.0  0.015196859129622632  0.7377821370912643  0.5499999999999486  1.0000
  C   C271      1.0  0.0010219844413065407  0.7207321220051265  0.5499999999999485  1.0000
  O   O48       1.0  0.12224122134955086  0.8258680699834927  0.5499999999999489  1.0000
  C   C272      1.0  0.08587260703520831  0.7773070594838878  0.5499999999999488  1.0000
  C   C273      1.0  0.13900189662081922  0.8307116970568658  0.5499999999999488  1.0000
  C   C274      1.0  0.15394864917928947  0.847354867425736  0.5499999999999492  1.0000
  C   C275      1.0  0.09443040513012112  0.7959485036663068  0.5499999999999486  1.0000
  C   C276      1.0  0.05922607389571815  0.7737384012578711  0.5499999999999488  1.0000
  H   H89       1.0  0.09125446294941883  0.8179159916366366  0.5499999999999489  1.0000
  H   H90       1.0  0.06277533984883563  0.7520399436470352  0.5499999999999486  1.0000
  H   H91       1.0  0.06044281187976982  0.798473658431269  0.5499999999999486  1.0000
  H   H92       1.0  0.09283790141994416  0.7710101348353069  0.5499999999999488  1.0000
  H   H93       1.0  0.1527975943796939  0.8029626974734012  0.5499999999999486  1.0000
  H   H94       1.0  0.9987265571068169  0.7630323248668855  0.5499999999999485  1.0000
  H   H95       1.0  0.001430592534677164  0.7087616207888117  0.5499999999999485  1.0000
  H   H96       1.0  0.15450748720283103  0.8598970747628766  0.5499999999999491  1.0000
  B   B25       1.0  0.9320788505493848  0.7487587298572165  0.5499999999999486  1.0000
  B   B26       1.0  0.8900879497362059  0.7774652599594095  0.5499999999999488  1.0000
  O   O49       1.0  0.8954002146033657  0.7953981569274826  0.5499999999999486  1.0000
  C   C277      1.0  0.8947879821845058  0.7522583189525521  0.5499999999999486  1.0000
  C   C278      1.0  0.8805693299283486  0.7954039420045921  0.5499999999999486  1.0000
  C   C279      1.0  0.8779297209922178  0.8093561797506839  0.5499999999999489  1.0000
  O   O50       1.0  0.9255659159713502  0.7305821031337602  0.5499999999999484  1.0000
  C   C280      1.0  0.9283776873216041  0.7749728933911004  0.5499999999999488  1.0000
  C   C281      1.0  0.9392445753736024  0.7289069368313102  0.5499999999999484  1.0000
  C   C282      1.0  0.9396351646895476  0.71369319733772  0.5499999999999485  1.0000
  O   O51       1.0  0.9490629992963094  0.7587732427690905  0.5499999999999486  1.0000
  C   C283      1.0  0.9046101682221513  0.7455268400403846  0.5499999999999486  1.0000
  C   C284      1.0  0.9535087300881003  0.745802703916926  0.5499999999999486  1.0000
  C   C285      1.0  0.9687724761897616  0.7478469228458842  0.5499999999999486  1.0000
  O   O52       1.0  0.873209662372555  0.7663227454566054  0.5499999999999485  1.0000
  C   C286      1.0  0.9183030908446498  0.7818774232797542  0.5499999999999488  1.0000
  C   C287      1.0  0.8673821313794462  0.7777870505546328  0.5499999999999488  1.0000
  C   C288      1.0  0.8515004574884262  0.773411394415059  0.5499999999999488  1.0000
  C   C289      1.0  0.9011921895479706  0.7705700938983321  0.5499999999999488  1.0000
  C   C290      1.0  0.9216787322451063  0.7565366612784491  0.5499999999999486  1.0000
  H   H97       1.0  0.8815209738238434  0.7429154209852034  0.5499999999999486  1.0000
  H   H98       1.0  0.9418106231834389  0.7839838459710756  0.5499999999999488  1.0000
  H   H99       1.0  0.8988274590341527  0.7310582023713448  0.5499999999999484  1.0000
  H   H100      1.0  0.9236942908661415  0.7963953910675068  0.5499999999999486  1.0000
  H   H101      1.0  0.8880610890739713  0.8233591454448655  0.5499999999999489  1.0000
  H   H102      1.0  0.928427827009299  0.700363807886213  0.5499999999999485  1.0000
  H   H103      1.0  0.9801733709528638  0.7610104398518027  0.5499999999999486  1.0000
  H   H104      1.0  0.8411360354836376  0.7595247979166424  0.5499999999999486  1.0000
  B   B27       1.0  0.7770456989349133  0.7401981084410783  0.5499999999999482  1.0000
  B   B28       1.0  0.7116891291957469  0.6695211285818959  0.549999999999948  1.0000
  O   O53       1.0  0.6962070538683954  0.6669303890986905  0.5499999999999481  1.0000
  C   C291      1.0  0.7432708625930128  0.6895721232232852  0.549999999999948  1.0000
  C   C292      1.0  0.6843609730986318  0.6476348792144899  0.5499999999999479  1.0000
  C   C293      1.0  0.6672067203743888  0.6376636905481161  0.5499999999999479  1.0000
  O   O54       1.0  0.7913068980437135  0.7402700116682774  0.5499999999999482  1.0000
  C   C294      1.0  0.7449385291151718  0.7215844914978051  0.5499999999999481  1.0000
  C   C295      1.0  0.8047004362150961  0.758371390823927  0.5499999999999482  1.0000
  C   C296      1.0  0.8210313059001434  0.7644503642836584  0.5499999999999482  1.0000
  O   O55       1.0  0.7806139313695651  0.7577206040549742  0.5499999999999482  1.0000
  C   C297      1.0  0.7583772953578678  0.7060347877757832  0.5499999999999481  1.0000
  C   C298      1.0  0.7991439174545464  0.7697184318930865  0.5499999999999482  1.0000
  C   C299      1.0  0.8115871002794987  0.789113272819223  0.5499999999999483  1.0000
  O   O56       1.0  0.7104217795566737  0.6531727901739515  0.5499999999999479  1.0000
  C   C300      1.0  0.7291603479556592  0.7043905379551495  0.5499999999999481  1.0000
  C   C301      1.0  0.6928448859635907  0.6392569147979339  0.5499999999999479  1.0000
  C   C302      1.0  0.6840543128747021  0.6202332588932128  0.5499999999999478  1.0000
  C   C303      1.0  0.7281114340227998  0.6879814887144107  0.549999999999948  1.0000
  C   C304      1.0  0.7599280951377648  0.7226024285926205  0.5499999999999481  1.0000
  H   H105      1.0  0.7431217879968404  0.6771981634300385  0.549999999999948  1.0000
  H   H106      1.0  0.7459415830649626  0.7346250913535856  0.5499999999999482  1.0000
  H   H107      1.0  0.7695451820426467  0.7059679973682499  0.5499999999999481  1.0000
  H   H108      1.0  0.7173609778116131  0.703513617515254  0.5499999999999481  1.0000
  H   H109      1.0  0.6605148579262675  0.644251054604889  0.5499999999999479  1.0000
  H   H110      1.0  0.8248547119806711  0.7550208040611581  0.5499999999999482  1.0000
  H   H111      1.0  0.8081270518131585  0.7988540327484795  0.5499999999999483  1.0000
  H   H112      1.0  0.6904217987618121  0.6132861805923173  0.5499999999999478  1.0000
  B   B29       1.0  0.8746858140563489  0.8780675841261321  0.5499999999999486  1.0000
  B   B30       1.0  0.9129168258146122  0.9585840289585322  0.5499999999999489  1.0000
  O   O57       1.0  0.9299892071178077  0.9693971529779463  0.5499999999999489  1.0000
  C   C305      1.0  0.8855819749508679  0.9275231197553457  0.5499999999999488  1.0000
  C   C306      1.0  0.934231543122943  0.9879026210959204  0.5499999999999492  1.0000
  C   C307      1.0  0.9494888066408065  0.004723146738884024  0.5499999999999491  1.0000
  O   O58       1.0  0.8576528498466401  0.8660888333152054  0.5499999999999485  1.0000
  C   C308      1.0  0.9011919188760218  0.9092975393669722  0.5499999999999485  1.0000
  C   C309      1.0  0.8548960753325673  0.8478965890192919  0.5499999999999485  1.0000
  C   C310      1.0  0.840597093929047  0.8297099033501825  0.5499999999999484  1.0000
  O   O59       1.0  0.8826060591129427  0.8690365173858531  0.5499999999999485  1.0000
  C   C311      1.0  0.8763136043141894  0.9081899856283759  0.5499999999999485  1.0000
  C   C312      1.0  0.8702324726071238  0.8504120006062131  0.5499999999999485  1.0000
  C   C313      1.0  0.8723185578379927  0.8363612828595831  0.5499999999999484  1.0000
  O   O60       1.0  0.9061376684192339  0.9688630293849408  0.5499999999999489  1.0000
  C   C314      1.0  0.9102359450346552  0.9281620509215249  0.5499999999999488  1.0000
  C   C315      1.0  0.919757921674369  0.987364208740205  0.5499999999999492  1.0000
  C   C316      1.0  0.9198047685327543  0.0029958382243003324  0.5499999999999491  1.0000
  C   C317      1.0  0.9028296951447778  0.9379599318183142  0.5499999999999488  1.0000
  C   C318      1.0  0.8840137381906361  0.8986392688152608  0.5499999999999486  1.0000
  H   H113      1.0  0.8793724700140115  0.93481883020884  0.5499999999999488  1.0000
  H   H114      1.0  0.9077693316820412  0.9025273872531885  0.5499999999999486  1.0000
  H   H115      1.0  0.8627356684807546  0.900070583727782  0.5499999999999486  1.0000
  H   H116      1.0  0.9236891974054725  0.9357728753050614  0.5499999999999488  1.0000
  H   H117      1.0  0.9611008551563256  0.005603477692436135  0.5499999999999491  1.0000
  H   H118      1.0  0.8282133193595204  0.8269111243687647  0.5499999999999484  1.0000
  H   H119      1.0  0.8845571594832434  0.8387589512403955  0.5499999999999483  1.0000
  H   H120      1.0  0.908380485739299  0.0025195587706570745  0.5499999999999491  1.0000
  B   B31       1.0  0.9063878876139646  0.0638200560911389  0.549999999999948  1.0000
  B   B32       1.0  0.8580943028378782  0.08716162093669472  0.549999999999948  1.0000
  O   O61       1.0  0.8633528532895596  0.10513210930765096  0.5499999999999481  1.0000
  C   C319      1.0  0.8651685201127487  0.06265364691668852  0.549999999999948  1.0000
  C   C320      1.0  0.8490608015374085  0.10597309768404951  0.5499999999999481  1.0000
  C   C321      1.0  0.8484550226605024  0.12107369773296772  0.5499999999999481  1.0000
  O   O62       1.0  0.9018102256351936  0.04603184983204868  0.5499999999999479  1.0000
  C   C322      1.0  0.8987581748896848  0.08773255250387149  0.549999999999948  1.0000
  C   C323      1.0  0.9167124444763506  0.04612730111083582  0.5499999999999479  1.0000
  C   C324      1.0  0.9185045886324487  0.0317203828887721  0.5499999999999479  1.0000
  O   O63       1.0  0.9235093766844208  0.07537392542790287  0.549999999999948  1.0000
  C   C325      1.0  0.8768161485439465  0.05723891549734901  0.5499999999999481  1.0000
  C   C326      1.0  0.9300947614493936  0.06363555022311174  0.549999999999948  1.0000
  C   C327      1.0  0.9463984189600194  0.06681613410262326  0.549999999999948  1.0000
  O   O64       1.0  0.8408910333277736  0.07621807276329458  0.549999999999948  1.0000
  C   C328      1.0  0.8872659646740644  0.09307479948850522  0.5499999999999481  1.0000
  C   C329      1.0  0.8350825732670846  0.08885440876029185  0.549999999999948  1.0000
  C   C330      1.0  0.819161961638983  0.0870555596179074  0.549999999999948  1.0000
  C   C331      1.0  0.8701608853799712  0.08080400943273898  0.549999999999948  1.0000
  C   C332      1.0  0.8939355749253589  0.06966794119660158  0.549999999999948  1.0000
  H   H121      1.0  0.8517351486882012  0.05267333297444669  0.5499999999999479  1.0000
  H   H122      1.0  0.9120827568739585  0.09787596292912247  0.5499999999999481  1.0000
  H   H123      1.0  0.8725520726553495  0.04294528625891698  0.5499999999999479  1.0000
  H   H124      1.0  0.8917622424733321  0.10736862946819106  0.5499999999999481  1.0000
  H   H125      1.0  0.8597290845238499  0.13434767490459076  0.5499999999999482  1.0000
  H   H126      1.0  0.9077858631286811  0.018039258577174422  0.549999999999948  1.0000
  H   H127      1.0  0.9573370996346224  0.08035018173686807  0.549999999999948  1.0000
  H   H128      1.0  0.8076895823444351  0.07395725803036654  0.549999999999948  1.0000
  B   B33       1.0  0.021777854574703222  0.07937528195813201  0.549999999999948  1.0000
  B   B34       1.0  0.09724685092608606  0.1212260945580152  0.5499999999999481  1.0000
  O   O65       1.0  0.10668743941714183  0.11366943134745004  0.5499999999999481  1.0000
  C   C333      1.0  0.06916255784592347  0.11892376873591526  0.5499999999999481  1.0000
  C   C334      1.0  0.12433808848464664  0.12892562578479652  0.5499999999999482  1.0000
  C   C335      1.0  0.13973215127595  0.13000607494458635  0.5499999999999482  1.0000
  O   O66       1.0  0.012337404208826293  0.08693202184043035  0.549999999999948  1.0000
  C   C336      1.0  0.049862255912921205  0.08167769190792182  0.549999999999948  1.0000
  C   C337      1.0  0.9946867823830878  0.07167581391300844  0.549999999999948  1.0000
  C   C338      1.0  0.979292701027712  0.07059537752152788  0.549999999999948  1.0000
  O   O67       1.0  0.011460635690960407  0.06066809850581864  0.549999999999948  1.0000
  C   C339      1.0  0.05126894338996897  0.10905906743908629  0.5499999999999481  1.0000
  C   C340      1.0  0.994420244729367  0.05600372212980004  0.5499999999999481  1.0000
  C   C341      1.0  0.9793523311658751  0.039131132741238785  0.5499999999999479  1.0000
  O   O68       1.0  0.10756420746130954  0.13993331173154183  0.5499999999999482  1.0000
  C   C342      1.0  0.06775586344111556  0.09154232182165806  0.5499999999999482  1.0000
  C   C343      1.0  0.12460462635315467  0.14459773819489966  0.5499999999999482  1.0000
  C   C344      1.0  0.13967252953817852  0.16147030291590667  0.5499999999999483  1.0000
  C   C345      1.0  0.07793377849164258  0.11046788485112735  0.5499999999999481  1.0000
  C   C346      1.0  0.041091252097681  0.0901336593824943  0.5499999999999482  1.0000
  H   H129      1.0  0.07667024275853647  0.13373078000421573  0.5499999999999482  1.0000
  H   H130      1.0  0.04235460734383108  0.06687066797382887  0.549999999999948  1.0000
  H   H131      1.0  0.044816887812647664  0.11615679298284255  0.5499999999999481  1.0000
  H   H132      1.0  0.07420796255983736  0.08444465059640657  0.549999999999948  1.0000
  H   H133      1.0  0.13995238894679782  0.11791902893176627  0.5499999999999481  1.0000
  H   H134      1.0  0.979072451745236  0.08268240717640636  0.549999999999948  1.0000
  H   H135      1.0  0.9791929970880078  0.026817253707303677  0.5499999999999479  1.0000
  H   H136      1.0  0.13983186351111385  0.17378418543735794  0.5499999999999483  1.0000
  B   B35       1.0  0.8574403978775955  0.19615667915337565  0.5499999999999509  1.0000
  B   B36       1.0  0.8969517218387898  0.27517935457655407  0.5499999999999513  1.0000
  O   O69       1.0  0.9139160425435171  0.2855199553985485  0.5499999999999512  1.0000
  C   C347      1.0  0.8697109452202395  0.24503722358704633  0.5499999999999512  1.0000
  C   C348      1.0  0.9183021361244866  0.30366975456727924  0.5499999999999512  1.0000
  C   C349      1.0  0.9335866889475698  0.3195984992956255  0.5499999999999513  1.0000
  O   O70       1.0  0.8404761503755134  0.18581622295239342  0.5499999999999509  1.0000
  C   C350      1.0  0.8846812091109824  0.2262989218479786  0.549999999999951  1.0000
  C   C351      1.0  0.8360900984915031  0.16766645301678607  0.549999999999951  1.0000
  C   C352      1.0  0.8208055146229205  0.1517376886057653  0.5499999999999505  1.0000
  O   O71       1.0  0.8640642301434137  0.18581622769108086  0.5499999999999509  1.0000
  C   C353      1.0  0.8603418203435903  0.2262989077367634  0.549999999999951  1.0000
  C   C354      1.0  0.8503005200505155  0.16766648758940322  0.549999999999951  1.0000
  C   C355      1.0  0.8496564067347333  0.15173773396797502  0.5499999999999505  1.0000
  O   O72       1.0  0.890328002563183  0.2855199520881445  0.5499999999999512  1.0000
  C   C356      1.0  0.8940503940711226  0.24503723425113624  0.5499999999999512  1.0000
  C   C357      1.0  0.9040916961351878  0.30366972068517384  0.5499999999999512  1.0000
  C   C358      1.0  0.9047358219180003  0.3195984641110746  0.5499999999999513  1.0000
  C   C359      1.0  0.8868413671298875  0.25495863884816217  0.5499999999999511  1.0000
  C   C360      1.0  0.8675509350759171  0.21637773570960264  0.549999999999951  1.0000
  H   H137      1.0  0.8636123244232701  0.2523463637452598  0.5499999999999511  1.0000
  H   H138      1.0  0.8907798799098848  0.21898982178182053  0.549999999999951  1.0000
  H   H139      1.0  0.8469340550220142  0.21898979893716022  0.549999999999951  1.0000
  H   H140      1.0  0.9074581535671913  0.252346386779889  0.5499999999999511  1.0000
  H   H141      1.0  0.944877038554922  0.31979691186618375  0.5499999999999513  1.0000
  H   H142      1.0  0.8095151675572381  0.15153926385955693  0.5499999999999505  1.0000
  H   H143      1.0  0.8607482924011571  0.15153930289295314  0.5499999999999505  1.0000
  H   H144      1.0  0.8936439332812289  0.31979689573493336  0.5499999999999513  1.0000
  B   B37       1.0  0.006134904420971829  0.39327685935892287  0.5499999999999492  1.0000
  B   B38       1.0  0.0782450827922055  0.43865762162070326  0.5499999999999492  1.0000
  O   O73       1.0  0.08837161308056787  0.43225666488362624  0.5499999999999492  1.0000
  C   C361      1.0  0.05013356092672511  0.4340141292434696  0.5499999999999492  1.0000
  C   C362      1.0  0.10463992155643603  0.4478058716342321  0.5499999999999494  1.0000
  C   C363      1.0  0.11952762412604512  0.4493091951982005  0.5499999999999494  1.0000
  O   O74       1.0  0.9966005898988017  0.4003775376489926  0.5499999999999491  1.0000
  C   C364      1.0  0.034146169281835954  0.3973282035953908  0.5499999999999491  1.0000
  C   C365      1.0  0.9802010462952098  0.3855101876410299  0.5499999999999492  1.0000
  C   C366      1.0  0.9660312113856203  0.38530349390707674  0.5499999999999492  1.0000
  O   O75       1.0  0.9967836224949881  0.3747333407631823  0.5499999999999488  1.0000
  C   C367      1.0  0.033152203313779126  0.4232943294315347  0.5499999999999493  1.0000
  C   C368      1.0  0.9800229735709707  0.3698897628893389  0.5499999999999488  1.0000
  C   C369      1.0  0.9650762113750232  0.3532465676054695  0.5499999999999489  1.0000
  O   O76       1.0  0.08698379761270533  0.4571519657082066  0.5499999999999494  1.0000
  C   C370      1.0  0.05136111579993527  0.4081953384308835  0.5499999999999491  1.0000
  C   C371      1.0  0.10382800980012266  0.4628193236398359  0.5499999999999493  1.0000
  C   C372      1.0  0.11800287603761044  0.47986931428414226  0.5499999999999493  1.0000
  C   C373      1.0  0.059798947041941636  0.4268631527602434  0.5499999999999493  1.0000
  C   C374      1.0  0.024594616107431827  0.4046530477958486  0.5499999999999491  1.0000
  H   H145      1.0  0.056249508302695955  0.44856150387476346  0.5499999999999494  1.0000
  H   H146      1.0  0.0277703856516683  0.3826854560595982  0.5499999999999492  1.0000
  H   H147      1.0  0.026186947423861236  0.42959130846711835  0.5499999999999492  1.0000
  H   H148      1.0  0.058582037001404394  0.40212778500756147  0.5499999999999491  1.0000
  H   H149      1.0  0.12029828317587177  0.4375691109886112  0.5499999999999492  1.0000
  H   H150      1.0  0.9662272466024838  0.3976387388042102  0.5499999999999491  1.0000
  H   H151      1.0  0.9645173740448061  0.3407043642068947  0.5499999999999489  1.0000
  H   H152      1.0  0.11759426810676685  0.49183981915217656  0.5499999999999495  1.0000
  B   B39       1.0  0.18375073025239877  0.560692587578771  0.5499999999999485  1.0000
  B   B40       1.0  0.22335876600964746  0.6399086938142393  0.5499999999999488  1.0000
  O   O77       1.0  0.24030148631509138  0.6496171006550778  0.5499999999999488  1.0000
  C   C375      1.0  0.19565853317867551  0.6098204013466852  0.5499999999999486  1.0000
  C   C376      1.0  0.2454739959447344  0.6679289352385116  0.5499999999999489  1.0000
  C   C377      1.0  0.26114644907761947  0.6830848829218236  0.5499999999999489  1.0000
  O   O78       1.0  0.16676116273750277  0.5496693146295802  0.5499999999999484  1.0000
  C   C378      1.0  0.21060507547053356  0.5910362323403983  0.5499999999999486  1.0000
  C   C379      1.0  0.16311968350169323  0.5315927286836732  0.5499999999999484  1.0000
  C   C380      1.0  0.14823451215995861  0.5148131851344812  0.5499999999999483  1.0000
  O   O79       1.0  0.19098515335886898  0.5509843326114379  0.5499999999999484  1.0000
  C   C381      1.0  0.18613885434687583  0.5907809770812147  0.5499999999999484  1.0000
  C   C382      1.0  0.17784582029780716  0.5326725552798487  0.5499999999999484  1.0000
  C   C383      1.0  0.17836240782951412  0.5175166064375677  0.5499999999999482  1.0000
  O   O80       1.0  0.2173925473722465  0.6509321084941193  0.5499999999999488  1.0000
  C   C384      1.0  0.219869573482345  0.6095651710365746  0.5499999999999486  1.0000
  C   C385      1.0  0.23182763057742514  0.6690086951096074  0.5499999999999489  1.0000
  C   C386      1.0  0.23372194906168423  0.6857882219689396  0.5499999999999488  1.0000
  C   C387      1.0  0.21283083562611627  0.6196384818266727  0.5499999999999485  1.0000
  C   C388      1.0  0.1934931821661695  0.5809631410519146  0.5499999999999485  1.0000
  H   H153      1.0  0.18977441318758195  0.6174290341872188  0.5499999999999486  1.0000
  H   H154      1.0  0.21689664502834677  0.5839908422908638  0.5499999999999485  1.0000
  H   H155      1.0  0.17264609714635606  0.5831723758933445  0.5499999999999485  1.0000
  H   H156      1.0  0.23320652195690253  0.6166106130318826  0.5499999999999486  1.0000
  H   H157      1.0  0.2718916392974524  0.6822295065900771  0.5499999999999489  1.0000
  H   H158      1.0  0.1364570839724015  0.5135600006652136  0.5499999999999483  1.0000
  H   H159      1.0  0.18996292209267596  0.5183719601676645  0.5499999999999482  1.0000
  H   H160      1.0  0.22319773782236102  0.6870414103384258  0.5499999999999488  1.0000
  B   B41       1.0  0.18694599016181826  0.4518426973977434  0.5499999999999482  1.0000
  B   B42       1.0  0.22893689097499964  0.4231361672955547  0.5499999999999481  1.0000
  O   O81       1.0  0.2236246261078397  0.4052032703274817  0.549999999999948  1.0000
  C   C389      1.0  0.2242368585266987  0.44834310830241136  0.5499999999999482  1.0000
  C   C390      1.0  0.23845551078285598  0.4051974852503721  0.549999999999948  1.0000
  C   C391      1.0  0.24109511971898492  0.39124524750427975  0.549999999999948  1.0000
  O   O82       1.0  0.1934589247398518  0.4700193241211991  0.5499999999999482  1.0000
  C   C392      1.0  0.190647153389601  0.42562853386386124  0.5499999999999481  1.0000
  C   C393      1.0  0.17978026533759967  0.4716944904236481  0.5499999999999482  1.0000
  C   C394      1.0  0.1793896760216541  0.4869082299172376  0.5499999999999483  1.0000
  O   O83       1.0  0.16996184141489365  0.4418281844858681  0.5499999999999481  1.0000
  C   C395      1.0  0.21441467248905235  0.4550745872145779  0.5499999999999482  1.0000
  C   C396      1.0  0.165516110623102  0.45479872333803195  0.5499999999999482  1.0000
  C   C397      1.0  0.1502523645214404  0.45275450440907317  0.5499999999999482  1.0000
  O   O84       1.0  0.24581517833865055  0.43427868179835905  0.5499999999999481  1.0000
  C   C398      1.0  0.20072174986655583  0.41872400397520887  0.5499999999999481  1.0000
  C   C399      1.0  0.251642709331759  0.422814376700331  0.5499999999999481  1.0000
  C   C400      1.0  0.26752438322277866  0.4271900328399037  0.5499999999999481  1.0000
  C   C401      1.0  0.21783265116323466  0.43003133335663174  0.5499999999999481  1.0000
  C   C402      1.0  0.19734610846609782  0.4440647659765123  0.5499999999999481  1.0000
  H   H161      1.0  0.23750386688736097  0.45768600626976075  0.5499999999999482  1.0000
  H   H162      1.0  0.17721421752776634  0.41661758128388515  0.5499999999999481  1.0000
  H   H163      1.0  0.22019738167705052  0.4695432248836175  0.5499999999999482  1.0000
  H   H164      1.0  0.19533054984506437  0.4042060361874564  0.549999999999948  1.0000
  H   H165      1.0  0.23096375163723107  0.37724228181009867  0.5499999999999481  1.0000
  H   H166      1.0  0.19059701370190238  0.5002376193687447  0.5499999999999483  1.0000
  H   H167      1.0  0.1388514697583384  0.4395909874031543  0.5499999999999481  1.0000
  H   H168      1.0  0.2778888052275681  0.44107662933832004  0.5499999999999481  1.0000
  B   B43       1.0  0.23988823439763937  0.7619437332573943  0.5499999999999485  1.0000
  B   B44       1.0  0.21315879359823328  0.807324471972499  0.5499999999999488  1.0000
  O   O85       1.0  0.22235093605694675  0.8258680327173541  0.5499999999999488  1.0000
  C   C403      1.0  0.2101585645011019  0.7773070347267703  0.5499999999999486  1.0000
  C   C404      1.0  0.2104338802177603  0.8307116798356315  0.5499999999999488  1.0000
  C   C405      1.0  0.2121302266253905  0.8473547777214564  0.5499999999999489  1.0000
  O   O86       1.0  0.23013255721337397  0.7434494702383854  0.5499999999999485  1.0000
  C   C406      1.0  0.24346646390869875  0.7924060433979978  0.5499999999999486  1.0000
  C   C407      1.0  0.24130943830585183  0.7377821364447854  0.5499999999999485  1.0000
  C   C408      1.0  0.2384343701684789  0.7207321803943296  0.5499999999999484  1.0000
  O   O87       1.0  0.25641571434100136  0.7683448168650316  0.5499999999999484  1.0000
  C   C409      1.0  0.2164201949813786  0.7665873043816914  0.5499999999999484  1.0000
  C   C410      1.0  0.25713475861311513  0.7527956085122531  0.5499999999999485  1.0000
  C   C411      1.0  0.27051923265974787  0.7512923674869925  0.5499999999999485  1.0000
  O   O88       1.0  0.19652375217074808  0.8002238742881519  0.5499999999999485  1.0000
  C   C412      1.0  0.23711871662098055  0.8032732399535317  0.5499999999999485  1.0000
  C   C413      1.0  0.19499153379822087  0.8150911976957341  0.5499999999999488  1.0000
  C   C414      1.0  0.1810283536350252  0.815297831694613  0.5499999999999488  1.0000
  C   C415      1.0  0.22024219073851473  0.7959484689206133  0.5499999999999486  1.0000
  C   C416      1.0  0.2332364619347278  0.773738407267583  0.5499999999999486  1.0000
  H   H169      1.0  0.19689634135157208  0.7710100953306036  0.5499999999999486  1.0000
  H   H170      1.0  0.2567549626425327  0.7984736670689212  0.5499999999999485  1.0000
  H   H171      1.0  0.207988734883659  0.7520399264770538  0.5499999999999485  1.0000
  H   H172      1.0  0.24538562092860985  0.8179159776826304  0.5499999999999488  1.0000
  H   H173      1.0  0.22411364532341788  0.8598970182102091  0.5499999999999489  1.0000
  H   H174      1.0  0.22605522157456984  0.708761647403332  0.5499999999999484  1.0000
  H   H175      1.0  0.2830299351275308  0.7630323963615339  0.5499999999999485  1.0000
  H   H176      1.0  0.16888917375891674  0.8029626242398636  0.5499999999999485  1.0000
  B   B45       1.0  0.2220730245186732  0.9254219300471495  0.5499999999999469  1.0000
  B   B46       1.0  0.2615843484798383  0.004444605470327604  0.5499999999999471  1.0000
  O   O89       1.0  0.2785486691910207  0.014785206465688878  0.549999999999947  1.0000
  C   C417      1.0  0.23434357197239866  0.9743024744471932  0.5499999999999469  1.0000
  C   C418      1.0  0.28293476257083117  0.032935005603519196  0.5499999999999474  1.0000
  C   C419      1.0  0.2982193152910687  0.04886375054639186  0.5499999999999473  1.0000
  O   O90       1.0  0.20510877702304742  0.9150814740195208  0.5499999999999469  1.0000
  C   C420      1.0  0.2493138358631567  0.9555641727081414  0.549999999999947  1.0000
  C   C421      1.0  0.2007227249378926  0.8969317040530194  0.5499999999999468  1.0000
  C   C422      1.0  0.1854381409664704  0.8810029398565208  0.5499999999999468  1.0000
  O   O91       1.0  0.22869685661759415  0.9150814784115008  0.5499999999999469  1.0000
  C   C423      1.0  0.22497444712937528  0.9555641586641482  0.549999999999947  1.0000
  C   C424      1.0  0.2149331463544463  0.8969317383407176  0.5499999999999468  1.0000
  C   C425      1.0  0.21428903272130154  0.8810029845047656  0.5499999999999468  1.0000
  O   O92       1.0  0.2549606290373198  0.014785202808551395  0.549999999999947  1.0000
  C   C426      1.0  0.2586830208569088  0.9743024851785375  0.5499999999999469  1.0000
  C   C427      1.0  0.26872432243906635  0.032934971436480893  0.5499999999999474  1.0000
  C   C428      1.0  0.2693684479045059  0.0488637146478535  0.5499999999999473  1.0000
  C   C429      1.0  0.2514739938741702  0.9842238897419361  0.5499999999999469  1.0000
  C   C430      1.0  0.23218356182021546  0.9456429866033762  0.5499999999999468  1.0000
  H   H177      1.0  0.2282449511217997  0.9816116145312104  0.5499999999999469  1.0000
  H   H178      1.0  0.25541250660844184  0.9482550725677996  0.5499999999999468  1.0000
  H   H179      1.0  0.2115666818283659  0.9482550499387291  0.5499999999999468  1.0000
  H   H180      1.0  0.27209078037354395  0.981611637781486  0.5499999999999469  1.0000
  H   H181      1.0  0.30950966503475186  0.04906216339540188  0.5499999999999473  1.0000
  H   H182      1.0  0.17414779403711483  0.8808045153887555  0.5499999999999468  1.0000
  H   H183      1.0  0.22538091824560882  0.8808045531513011  0.5499999999999468  1.0000
  H   H184      1.0  0.2582765591256139  0.04906214599326126  0.5499999999999473  1.0000
  B   B47       1.0  0.26093059971288596  0.11343973080521151  0.5499999999999483  1.0000
  B   B48       1.0  0.2126370191936521  0.13678130016830523  0.5499999999999484  1.0000
  O   O93       1.0  0.21721459335239357  0.15456955042705556  0.5499999999999484  1.0000
  C   C431      1.0  0.22026664517557676  0.11286881066265908  0.5499999999999483  1.0000
  C   C432      1.0  0.20231238273976163  0.15447414225169948  0.5499999999999484  1.0000
  C   C433      1.0  0.20052022958826293  0.1688810282025406  0.5499999999999485  1.0000
  O   O94       1.0  0.25567196506401035  0.09546929143554736  0.5499999999999483  1.0000
  C   C434      1.0  0.2538562997384466  0.13794771601152805  0.5499999999999484  1.0000
  C   C435      1.0  0.2699640273631219  0.09462834725292958  0.5499999999999483  1.0000
  C   C436      1.0  0.27056979545478954  0.07952771472344823  0.5499999999999482  1.0000
  O   O95       1.0  0.2781338215179269  0.12438337631568445  0.5499999999999482  1.0000
  C   C437      1.0  0.23175891289536885  0.10752663992694599  0.5499999999999483  1.0000
  C   C438      1.0  0.28394223610191505  0.11174701433986128  0.5499999999999483  1.0000
  C   C439      1.0  0.2998628710479006  0.11354588147852311  0.5499999999999483  1.0000
  O   O96       1.0  0.19551547753373333  0.12522752380055546  0.5499999999999482  1.0000
  C   C440      1.0  0.24220872940517768  0.14336252411226394  0.5499999999999484  1.0000
  C   C441      1.0  0.18893004721698248  0.13696587050917008  0.5499999999999484  1.0000
  C   C442      1.0  0.1726264125130253  0.1337853053681206  0.5499999999999484  1.0000
  C   C443      1.0  0.22508913324869573  0.13093352885964574  0.5499999999999484  1.0000
  C   C444      1.0  0.24886382513150615  0.11979746397011944  0.5499999999999483  1.0000
  H   H185      1.0  0.20694206539220167  0.10272544910871174  0.5499999999999483  1.0000
  H   H186      1.0  0.26728967338170023  0.14792807933528035  0.5499999999999484  1.0000
  H   H187      1.0  0.22726258346573333  0.0932327879976858  0.5499999999999483  1.0000
  H   H188      1.0  0.24647275315577993  0.15765613108667847  0.5499999999999483  1.0000
  H   H189      1.0  0.21123896972983036  0.18256215880306648  0.5499999999999485  1.0000
  H   H190      1.0  0.25929574794032884  0.06625374277999338  0.5499999999999482  1.0000
  H   H191      1.0  0.3113352464090054  0.12664417982520995  0.5499999999999484  1.0000
  H   H192      1.0  0.16168772812882387  0.12025125418056659  0.5499999999999483  1.0000
  B   B49       1.0  0.2061079205043037  0.2420172523913603  0.5499999999999495  1.0000
  B   B50       1.0  0.24433893859141398  0.32253369585413144  0.5499999999999496  1.0000
  O   O97       1.0  0.2613719683160335  0.33451259342475714  0.5499999999999496  1.0000
  C   C445      1.0  0.21783286202095112  0.2913038548368657  0.5499999999999495  1.0000
  C   C446      1.0  0.26412878323752526  0.3527048715364469  0.5499999999999498  1.0000
  C   C447      1.0  0.2784277329463077  0.3708915326830818  0.5499999999999498  1.0000
  O   O98       1.0  0.1890356121992615  0.23120427599371068  0.5499999999999493  1.0000
  C   C448      1.0  0.2334428056131222  0.27307827449847194  0.5499999999999496  1.0000
  C   C449      1.0  0.18479331773217264  0.21269883855201685  0.5499999999999493  1.0000
  C   C450      1.0  0.16953602260030692  0.19587829190696257  0.5499999999999492  1.0000
  O   O99       1.0  0.21288719092736463  0.2317384015392034  0.5499999999999493  1.0000
  C   C451      1.0  0.2087888967465137  0.2724393420890103  0.5499999999999496  1.0000
  C   C452      1.0  0.19926692001329047  0.21323725010389874  0.5499999999999493  1.0000
  C   C453      1.0  0.19922008539293645  0.19760561047095215  0.5499999999999494  1.0000
  O   O100      1.0  0.236418800781887  0.3315649151696395  0.5499999999999496  1.0000
  C   C454      1.0  0.24271123763091645  0.2924114068919053  0.5499999999999495  1.0000
  C   C455      1.0  0.2487923653065553  0.35018945563017123  0.5499999999999498  1.0000
  C   C456      1.0  0.24670629386153795  0.3642401656310287  0.5499999999999498  1.0000
  C   C457      1.0  0.2350111850806434  0.30196235957946754  0.5499999999999495  1.0000
  C   C458      1.0  0.21619523321506876  0.2626416973461992  0.5499999999999494  1.0000
  H   H193      1.0  0.21125549859880238  0.2980740481207367  0.5499999999999495  1.0000
  H   H194      1.0  0.23965236088466302  0.26578260607350995  0.5499999999999494  1.0000
  H   H195      1.0  0.19533563780182076  0.26482856127896526  0.5499999999999494  1.0000
  H   H196      1.0  0.2562891665618181  0.30053085292418613  0.5499999999999495  1.0000
  H   H197      1.0  0.29081151242259906  0.3736903010086098  0.5499999999999498  1.0000
  H   H198      1.0  0.1579239771999725  0.194997949073805  0.5499999999999492  1.0000
  H   H199      1.0  0.2106443647804789  0.1980818896001539  0.5499999999999494  1.0000
  H   H200      1.0  0.23446768841567012  0.3618424958908355  0.5499999999999498  1.0000
  B   B51       1.0  0.3419791417762908  0.4604033188138795  0.549999999999951  1.0000
  B   B52       1.0  0.40733571151545905  0.5310802986730645  0.5499999999999512  1.0000
  O   O101      1.0  0.4228177868428109  0.5336710381562704  0.5499999999999511  1.0000
  C   C459      1.0  0.3757539781181923  0.511029304031674  0.549999999999951  1.0000
  C   C460      1.0  0.434663867612575  0.5529665480404712  0.5499999999999511  1.0000
  C   C461      1.0  0.4518181203368181  0.5629377367068445  0.5499999999999513  1.0000
  O   O102      1.0  0.3277179426674903  0.46033141558668034  0.549999999999951  1.0000
  C   C462      1.0  0.37408631159603306  0.47901693575715354  0.5499999999999509  1.0000
  C   C463      1.0  0.31432440449610705  0.4422300364310305  0.5499999999999505  1.0000
  C   C464      1.0  0.2979935348110596  0.4361510629713001  0.5499999999999505  1.0000
  O   O103      1.0  0.33841090934163803  0.4428808231999831  0.5499999999999505  1.0000
  C   C465      1.0  0.3606475453533368  0.4945666394791753  0.5499999999999511  1.0000
  C   C466      1.0  0.3198809232566562  0.4308829953618706  0.5499999999999506  1.0000
  C   C467      1.0  0.30743774043170224  0.41148815443573333  0.5499999999999504  1.0000
  O   O104      1.0  0.4086030611545326  0.5474286370810094  0.5499999999999511  1.0000
  C   C468      1.0  0.38986449275554635  0.49621088929981005  0.5499999999999511  1.0000
  C   C469      1.0  0.4261799547476166  0.5613445124570278  0.5499999999999513  1.0000
  C   C470      1.0  0.4349705278365061  0.5803681683617495  0.5499999999999512  1.0000
  C   C471      1.0  0.39091340668840563  0.5126199385405489  0.549999999999951  1.0000
  C   C472      1.0  0.3590967455734397  0.47799899866233786  0.5499999999999509  1.0000
  H   H201      1.0  0.37590305271436497  0.523403263824921  0.5499999999999512  1.0000
  H   H202      1.0  0.3730832576462422  0.4659763359013731  0.5499999999999509  1.0000
  H   H203      1.0  0.3494796586685577  0.4946334298867084  0.5499999999999511  1.0000
  H   H204      1.0  0.4016638628995926  0.49708780973970607  0.5499999999999511  1.0000
  H   H205      1.0  0.45850998278493893  0.556350372650071  0.5499999999999513  1.0000
  H   H206      1.0  0.2941701287305327  0.4455806231938011  0.5499999999999505  1.0000
  H   H207      1.0  0.3108977888980411  0.40174739450647595  0.5499999999999504  1.0000
  H   H208      1.0  0.4286030419493968  0.5873152466626458  0.5499999999999512  1.0000
  B   B53       1.0  0.5898335202107877  0.6003007069928233  0.549999999999947  1.0000
  B   B54       1.0  0.5291914149450645  0.6003006902406461  0.549999999999947  1.0000
  O   O105      1.0  0.5289405575553172  0.6156697547044736  0.549999999999947  1.0000
  C   C473      1.0  0.5443932045815715  0.5844420539699792  0.5499999999999468  1.0000
  C   C474      1.0  0.5119573331584748  0.6095596617268362  0.549999999999947  1.0000
  C   C475      1.0  0.5045031444068777  0.6190987604971464  0.5499999999999469  1.0000
  O   O106      1.0  0.5900842670141733  0.5849316435870239  0.5499999999999468  1.0000
  C   C476      1.0  0.5746316311231183  0.6161593157548181  0.5499999999999469  1.0000
  C   C477      1.0  0.6070674865247461  0.5910417716117697  0.549999999999947  1.0000
  C   C478      1.0  0.6145216762635106  0.5815026449360279  0.5499999999999469  1.0000
  O   O107      1.0  0.6054533519771629  0.6156698203289542  0.549999999999947  1.0000
  C   C479      1.0  0.5587730322368194  0.5844420967460348  0.5499999999999468  1.0000
  C   C480      1.0  0.6163264156192578  0.6095596826194469  0.549999999999947  1.0000
  C   C481      1.0  0.6333197638675132  0.6190988893749126  0.5499999999999469  1.0000
  O   O108      1.0  0.5135714972210811  0.584931628880039  0.5499999999999468  1.0000
  C   C482      1.0  0.5602518463327105  0.6161593535209825  0.5499999999999469  1.0000
  C   C483      1.0  0.5026983915192904  0.5910417262523107  0.549999999999947  1.0000
  C   C484      1.0  0.4857050625673737  0.5815025421121491  0.5499999999999469  1.0000
  C   C485      1.0  0.5447088186470597  0.600300694132549  0.549999999999947  1.0000
  C   C486      1.0  0.5743158628922946  0.6003007189713118  0.549999999999947  1.0000
  H   H209      1.0  0.532429355717145  0.5717324423512786  0.5499999999999469  1.0000
  H   H210      1.0  0.5865954687851384  0.6288689663882233  0.5499999999999471  1.0000
  H   H211      1.0  0.558027232109332  0.5717324587820561  0.5499999999999469  1.0000
  H   H212      1.0  0.560997594792896  0.6288689553798286  0.5499999999999471  1.0000
  H   H213      1.0  0.5116426028550575  0.6336822017647409  0.5499999999999471  1.0000
  H   H214      1.0  0.6073822325660225  0.5669192149099583  0.5499999999999469  1.0000
  H   H215      1.0  0.6407637333803671  0.6336822757553672  0.5499999999999471  1.0000
  H   H216      1.0  0.478261090730969  0.5669191514995912  0.5499999999999469  1.0000
